17
metacyc 1-CARBOXYGLUTAMIC_ACID  -724.3357536 -724.3357536 -724.3357536 -724.3357536 -724.3357536 -724.3357536 -724.3357536 -724.3357536 -724.3357536 -724.3357536 -724.3357536 -724.3357536 -724.3357536 -724.3357536 -724.3357536
C          0.93118       -0.00179       -0.07956
C          0.27644        1.31141        0.40229
N          0.63976        2.43386       -0.48485
C         -1.28752        1.34086        0.45906
O         -1.92708        0.65306       -0.39522
O         -1.79671        2.10163        1.34937
C          2.48075        0.00202       -0.08829
C          3.09882        0.11995        1.30003
O          2.66868       -0.64629        2.21506
O          3.92275        1.08059        1.46083
C          3.11553       -1.23128       -0.73068
O          2.42347       -2.29442       -0.80228
O          4.24597       -1.05362       -1.29458
H          0.57547       -0.23126       -1.09368
H          0.56261       -0.82171        0.55072
H          0.64455        1.53993        1.40943
H          2.80984        0.85987       -0.69017
17 17 17 17 17 17 17 17 17 17 17 17 17 17 17 17 17 17 17 17 17 17 17 17 17 17 17 17 17 17 17 17 17 17 17 17 17 17 17 17 17 17 17 17 17 17
C(C([N+])C(=O)[O-])C(C(=O)[O-])C(=O)[O-]
InChI=1S/C6H9NO6/c7-3(6(12)13)1-2(4(8)9)5(10)11/h2-3H,1,7H2,(H,8,9)(H,10,11)(H,12,13)/p-2
