21
metacyc 1-KETO-2-METHYLVALERATE  -196.270368896 -196.270368896 -196.270368896 -196.270368896 -196.270368896 -196.270368896 -196.270368896 -196.270368896 -196.270368896 -196.270368896 -196.270368896 -196.270368896 -196.270368896 -196.270368896 -196.270368896
C          0.97733       -0.09575        0.08119
C          2.49906       -0.10413       -0.03154
C          3.07958        0.46425       -1.35246
O          2.56233       -0.32889       -2.45165
C          2.61338        1.90362       -1.61392
C          4.62442        0.34713       -1.38419
C          5.30223        1.23641       -0.29659
O          5.70558        0.57592        0.71243
O          5.39339        2.46966       -0.54278
O          5.03176       -1.03756       -1.15453
H          0.67709       -0.52027        1.04533
H          0.51043       -0.70016       -0.70159
H          0.57354        0.91923        0.03064
H          2.81718       -1.14722        0.08658
H          2.90127        0.45413        0.82168
H          1.60222       -0.20745       -2.47487
H          1.53534        1.94843       -1.80414
H          3.08996        2.30444       -2.51613
H          2.83246        2.56949       -0.77465
H          5.01417        0.61485       -2.37250
H          5.44640       -0.97655       -0.25937
21 21 21 21 21 21 21 21 21 21 21 21 21 21 21 21 21 21 21 21 21 21 21 21 21 21 21 21 21 21 21 21 21 21 21 21 21 21 21 21 21 21 21 21 21 21 21 21 21 21 21 21 21 21 21 21 21 21
CCC(O)(C)C(C([O-])=O)O
InChI=1S/C6H12O4/c1-3-6(2,10)4(7)5(8)9/h4,7,10H,3H2,1-2H3,(H,8,9)/p-1/t4-,6+/m0/s1
