27
metacyc 1-METHYL-MYO-INOSITOL  -257.375902328 -257.375902328 -257.375902328 -257.375902328 -257.375902328 -257.375902328 -257.375902328 -257.375902328 -257.375902328 -257.375902328 -257.375902328 -257.375902328 -257.375902328 -257.375902328 -257.375902328
C          1.12618        0.72793       -0.28484
O          2.35481        0.09055        0.04427
C          2.84561        0.40196        1.36162
C          4.03531       -0.54147        1.64581
O          3.58245       -1.90043        1.56042
C          5.19831       -0.27639        0.66086
O          6.33252       -1.08413        1.00575
C          5.62638        1.20557        0.66570
O          6.28089        1.49024        1.92272
C          4.42264        2.13870        0.44266
O          4.82828        3.50808        0.54197
C          3.31301        1.86393        1.47623
O          3.83258        2.12284        2.79548
H          0.78811        0.33515       -1.24772
H          1.26567        1.80678       -0.39456
H          0.36242        0.51658        0.46844
H          2.05631        0.18475        2.09248
H          4.39128       -0.41246        2.67545
H          3.29660       -2.03642        0.63836
H          4.90093       -0.57852       -0.35063
H          6.81674       -0.58622        1.69456
H          6.39017        1.38032       -0.10012
H          5.58754        1.74781        2.56747
H          4.03382        1.99709       -0.57193
H          5.19246        3.62358        1.44072
H          2.49089        2.56930        1.31839
H          3.10620        1.97031        3.43059
27 27 27 27 27 27 27 27 27 27 27 27 27 27 27 27 27 27 27 27 27 27 27 27 27 27 27 27 27 27 27 27 27 27 27 27 27 27 27 27 27 27 27 27 27 27 27 27 27 27 27 27 27 27 27 27 27 27 27 27 27 27 27 27 27 27 27 27 27 27 27 27 27 27 27 27
COC1(C(O)C(O)C(O)C(O)C(O)1)
InChI=1S/C7H14O6/c1-13-7-5(11)3(9)2(8)4(10)6(7)12/h2-12H,1H3/t2-,3-,4+,5-,6-,7-/m1/s1
