21
metacyc 12-DIHYDROXY-6-METHYLCYCLOHEXA-35-DIEN  -168.33056248 -168.33056248 -168.33056248 -168.33056248 -168.33056248 -168.33056248 -168.33056248 -168.33056248 -168.33056248 -168.33056248 -168.33056248 -168.33056248 -168.33056248 -168.33056248 -168.33056248
C          0.98223        0.18735       -0.06658
C          2.48692        0.20399       -0.06457
C          3.17626        1.35802       -0.02286
C          4.61468        1.39610        0.01993
C          5.35292        0.27950        0.03148
C          4.76036       -1.10313       -0.00238
O          5.33555       -1.70861       -1.18647
C          3.20057       -1.15289       -0.08469
O          2.86693       -1.80873       -1.35686
C          2.74450       -2.00072        1.17021
O          3.11399       -1.56024        2.30176
O          2.02441       -3.01807        0.93191
H          0.56581        1.20024       -0.09558
H          0.59365       -0.29990        0.83253
H          0.60054       -0.34399       -0.94393
H          2.66180        2.31401        0.00917
H          5.09304        2.36887        0.05986
H          6.43395        0.33966        0.07680
H          5.15559       -1.67009        0.84778
H          4.57315       -2.20340       -1.56011
H          2.49778       -1.11611       -1.92530
21 21 21 21 21 21 21 21 21 21 21 21 21 21 21 21 21 21 21 21 21 21 21 21 21 21 21 21 21 21 21 21 21 21 21 21 21 21 21 21 21 21 21 21 21 21 21 21 21 21 21 21 21 21 21 21 21 21
CC1(=CC=CC(O)C(O)1C(=O)[O-])
InChI=1S/C8H10O4/c1-5-3-2-4-6(9)8(5,12)7(10)11/h2-4,6,9,12H,1H3,(H,10,11)/p-1
