16
metacyc 1235-TETRAHYDROXYBENZENE  -279.12832168 -279.12832168 -279.12832168 -279.12832168 -279.12832168 -279.12832168 -279.12832168 -279.12832168 -279.12832168 -279.12832168 -279.12832168 -279.12832168 -279.12832168 -279.12832168 -279.12832168
C         -0.70548        1.21828        0.00294
C          0.68908        1.17954        0.00588
O          1.42675        2.32835        0.00793
C          1.38479       -0.03099        0.00678
C          0.66474       -1.22028        0.00478
O          1.27957       -2.44154        0.00545
C         -0.72586       -1.19404        0.00193
C         -1.40448        0.01870        0.00097
O         -2.76951        0.03791       -0.00200
O         -1.44418       -2.35915        0.00005
H         -1.25315        2.15405        0.00217
H          0.81713        3.08602        0.00705
H          2.46942       -0.02026        0.00906
H          2.24176       -2.29226        0.00682
H         -3.02757       -0.90649       -0.00310
H         -0.75992       -3.06013        0.00152
16 16 16 16 16 16 16 16 16 16 16 16 16 16 16 16 16 16 16 16 16 16 16 16 16 16 16 16 16 16 16 16 16 16 16 16 16 16 16 16 16 16 16
C1(C(O)=CC(O)=C(C=1O)O)
InChI=1S/C6H6O4/c7-3-1-4(8)6(10)5(9)2-3/h1-2,7-10H
