17
metacyc 2-3-DIHYDRODIPICOLINATE  -376.57100392 -376.57100392 -376.57100392 -376.57100392 -376.57100392 -376.57100392 -376.57100392 -376.57100392 -376.57100392 -376.57100392 -376.57100392 -376.57100392 -376.57100392 -376.57100392 -376.57100392
C          1.37967       -0.32769        0.00956
C          0.32580       -1.38533        0.00007
C         -1.12992       -0.90618        0.08112
N         -1.35724        0.57005        0.04201
C         -0.34989        1.38250        0.00873
C          1.08068        0.97144        0.02852
C         -0.61458        2.92660       -0.09295
O          0.42887        3.67060       -0.09916
O         -1.81275        3.34563       -0.20374
C         -1.80746       -1.59973        1.31476
O         -1.25903       -1.43989        2.44770
O         -2.78580       -2.36490        1.02907
H          2.41613       -0.64123        0.01691
H          0.56301       -2.10530        0.79270
H          0.44643       -1.94621       -0.93721
H         -1.64701       -1.30365       -0.80323
H          1.83200        1.74973        0.04604
17 17 17 17 17 17 17 17 17 17 17 17 17 17 17 17 17 17 17 17 17 17 17 17 17 17 17 17 17 17 17 17 17 17 17 17 17 17 17 17 17 17 17 17 17 17
C1(CC(N=C(C=1)C(=O)[O-])C(=O)[O-])
InChI=1S/C7H7NO4/c9-6(10)4-2-1-3-5(8-4)7(11)12/h1-2,5H,3H2,(H,9,10)(H,11,12)/p-2/t5-/m0/s1
