22
metacyc 2-3-DIHYDROXYPHENYL-PROPIONATE  -146.824827584 -146.824827584 -146.824827584 -146.824827584 -146.824827584 -146.824827584 -146.824827584 -146.824827584 -146.824827584 -146.824827584 -146.824827584 -146.824827584 -146.824827584 -146.824827584 -146.824827584
C          0.91643       -0.18774        0.01149
C          0.13662       -0.23017        1.31819
C          1.14811       -0.22822        2.45498
C          0.46509       -0.23955        3.80315
C          0.06964        0.92091        4.47408
C         -0.55884        0.83902        5.72034
C         -0.81898       -0.38507        6.31748
C         -0.44897       -1.55169        5.65280
C          0.18424       -1.47883        4.40694
O         -0.93534        1.98709        6.36295
O          0.25545        2.18457        3.97340
O          1.60997        0.85456       -0.15713
O          0.76260       -1.19024       -0.73954
H         -0.49870       -1.12276        1.36002
H         -0.52355        0.64367        1.36477
H          1.82806        0.63066        2.39642
H          1.80555       -1.10438        2.37369
H         -1.31122       -0.42868        7.28288
H         -0.65485       -2.52123        6.09701
H          0.45710       -2.40016        3.89477
H         -0.66425        2.69120        5.73868
H          0.58560        2.10115        3.05815
22 22 22 22 22 22 22 22 22 22 22 22 22 22 22 22 22 22 22 22 22 22 22 22 22 22 22 22 22 22 22 22 22 22 22 22 22 22 22 22 22 22 22 22 22 22 22 22 22 22 22 22 22 22 22 22 22 22 22 22 22
C(CCC1(C(=C(C=CC=1)O)O))([O-])=O
InChI=1S/C9H10O4/c10-7-3-1-2-6(9(7)13)4-5-8(11)12/h1-3,10,13H,4-5H2,(H,11,12)/p-1
