16
metacyc 2-3-DIHYDROXYBENZOATE  -338.7636268 -338.7636268 -338.7636268 -338.7636268 -338.7636268 -338.7636268 -338.7636268 -338.7636268 -338.7636268 -338.7636268 -338.7636268 -338.7636268 -338.7636268 -338.7636268 -338.7636268
C          1.04003       -0.00856       -0.05883
C          0.46615        1.06660        0.84055
C         -0.28385        0.66387        1.96918
C         -0.82990        1.58900        2.86536
C         -0.64358        2.95050        2.65513
C          0.07987        3.36359        1.54080
C          0.62647        2.43849        0.63860
O          1.28140        2.94942       -0.44925
O          0.27157        4.69875        1.27955
O          0.39842       -1.11188       -0.08989
O          2.13373        0.21191       -0.66621
H         -0.43513       -0.40258        2.13893
H         -1.39644        1.23318        3.72084
H         -1.06612        3.66143        3.35443
H          1.31224        3.90900       -0.29729
H         -0.22351        5.19741        1.94879
16 16 16 16 16 16 16 16 16 16 16 16 16 16 16 16 16 16 16 16 16 16 16 16 16 16 16 16 16 16 16 16 16 16 16 16 16 16 16 16 16 16 16
C(C1(=CC=CC(=C1O)O))([O-])=O
InChI=1S/C7H6O4/c8-5-3-1-2-4(6(5)9)7(10)11/h1-3,8-9H,(H,10,11)/p-1
