13
metacyc 2-5-DIHYDROXYPYRIDINE  -3.0727312736 -3.0727312736 -3.0727312736 -3.0727312736 -3.0727312736 -3.0727312736 -3.0727312736 -3.0727312736 -3.0727312736 -3.0727312736 -3.0727312736 -3.0727312736 -3.0727312736 -3.0727312736 -3.0727312736
C         -0.72050        1.11949        0.00276
C          0.66190        1.22911       -0.02260
O          1.31215        2.42459       -0.04289
C          1.41973        0.06800       -0.02985
C          0.77048       -1.16436       -0.01655
C         -0.61593       -1.17013        0.00362
O         -1.31440       -2.34077        0.00939
N         -1.37690       -0.06196        0.01607
H         -1.36483        1.99215        0.01248
H          0.65583        3.14178       -0.05667
H          2.50401        0.12218       -0.04735
H          1.34633       -2.08127       -0.02229
H         -0.67906       -3.06869       -0.03849
13 13 13 13 13 13 13 13 13 13 13 13 13 13 13 13 13 13 13 13 13 13 13 13 13 13 13 13 13 13 13 13 13 13
C1(C(O)=CC=C(O)N=1)
InChI=1S/C5H5NO2/c7-4-1-2-5(8)6-3-4/h1-3,7H,(H,6,8)
