16
metacyc 2-ACETO-LACTATE  -341.39017464 -341.39017464 -341.39017464 -341.39017464 -341.39017464 -341.39017464 -341.39017464 -341.39017464 -341.39017464 -341.39017464 -341.39017464 -341.39017464 -341.39017464 -341.39017464 -341.39017464
C          2.85014        0.04750        1.58943
C          2.66996       -0.11646        0.09292
O          1.86537       -0.96065       -0.33143
C          3.35442        0.88990       -0.82274
C          3.01882        0.61119       -2.29417
O          2.84874        2.20005       -0.45080
C          4.90400        0.81554       -0.72737
O          5.38848       -0.13972       -0.05291
O          5.53367        1.70618       -1.37806
H          2.36623       -0.78832        2.10132
H          2.38033        0.97800        1.91297
H          3.90358        0.04630        1.87143
H          1.93942        0.68372       -2.46961
H          3.34723       -0.38749       -2.60260
H          3.48647        1.34543       -2.96155
H          2.41267        2.56761       -1.23413
16 16 16 16 16 16 16 16 16 16 16 16 16 16 16 16 16 16 16 16 16 16 16 16 16 16 16 16 16 16 16 16 16 16 16 16 16 16 16 16 16 16 16
CC(=O)C(C)(O)C(=O)[O-]
InChI=1S/C5H8O4/c1-3(6)5(2,9)4(7)8/h9H,1-2H3,(H,7,8)/p-1/t5-/m0/s1
