19
metacyc 2-ACETO-2-HYDROXY-BUTYRATE  -248.66334156 -248.66334156 -248.66334156 -248.66334156 -248.66334156 -248.66334156 -248.66334156 -248.66334156 -248.66334156 -248.66334156 -248.66334156 -248.66334156 -248.66334156 -248.66334156 -248.66334156
C          0.85647       -0.28632       -0.00098
C          2.37106       -0.10813        0.01674
C          2.88644        0.59842        1.27211
O          2.29210        1.92613        1.33937
C          2.52561       -0.18485        2.57116
O          2.93228       -1.37177        2.66741
O          1.86340        0.52163        3.39859
C          4.41126        0.76022        1.25868
C          5.06101        1.44518        2.43916
O          5.11481        0.44132        0.29111
H          0.54214       -0.73329       -0.94965
H          0.33788        0.67128        0.10631
H          0.52453       -0.94949        0.80431
H          2.64359        0.48268       -0.86774
H          2.84686       -1.08942       -0.09925
H          1.89186        1.91877        2.24592
H          4.36303        1.58749        3.26570
H          5.42189        2.42723        2.12208
H          5.89635        0.83546        2.79347
19 19 19 19 19 19 19 19 19 19 19 19 19 19 19 19 19 19 19 19 19 19 19 19 19 19 19 19 19 19 19 19 19 19 19 19 19 19 19 19 19 19 19 19 19 19 19 19 19 19 19 19
CCC(O)(C(=O)[O-])C(C)=O
InChI=1S/C6H10O4/c1-3-6(10,4(2)7)5(8)9/h10H,3H2,1-2H3,(H,8,9)/p-1/t6-/m0/s1
