27
metacyc 2-AMINO-ETCETERA-DIHYDROXYPTERIDINE  -132.478385296 -132.478385296 -132.478385296 -132.478385296 -132.478385296 -132.478385296 -132.478385296 -132.478385296 -132.478385296 -132.478385296 -132.478385296 -132.478385296 -132.478385296 -132.478385296 -132.478385296
C          2.10289       -1.09082       -1.58230
C          2.44454        0.34494       -1.83445
O          2.07034        1.00388       -2.79376
C          3.33967        0.98658       -0.81294
O          2.84391        1.54255        0.15770
C          4.83112        0.91842       -0.92643
C          5.57707        2.13831       -0.41711
N          6.93731        1.76672       -0.01667
O          7.04097        1.60322        1.37563
C          7.56379        0.71663       -0.69123
N          8.84809        0.54595       -0.61734
C          9.42147       -0.46008       -1.33120
N          8.80714       -1.26038       -2.13595
C          7.45345       -1.20851       -2.31467
O          6.84906       -1.94881       -3.08141
C          6.73428       -0.18166       -1.52663
N          5.35335       -0.13830       -1.48064
N         10.76293       -0.58721       -1.21348
O          5.67810        3.08335       -1.46771
H          1.40323       -1.43882       -2.34642
H          1.63018       -1.19040       -0.60182
H          3.00650       -1.70338       -1.62690
H          5.04649        2.60973        0.41360
H          7.34803        2.47878        1.68389
H         11.22677        0.26016       -0.91408
H         11.19249       -1.04971       -2.00590
H          6.51767        2.89461       -1.91883
27 27 27 27 27 27 27 27 27 27 27 27 27 27 27 27 27 27 27 27 27 27 27 27 27 27 27 27 27 27 27 27 27 27 27 27 27 27 27 27 27 27 27 27 27 27 27 27 27 27 27 27 27 27 27 27 27 27 27 27 27 27 27 27 27 27 27 27 27 27 27 27 27 27 27 27
CC(=O)C(=O)C1(C(N(O)C2(=NC(=NC(=O)[C-](N=1)2)N))O)
InChI=1S/C9H8N5O5/c1-2(15)5(16)3-8(18)14(19)6-4(11-3)7(17)13-9(10)12-6/h8,18-19H,1H3,(H2,10,13,17)/q-1
