36
metacyc 2-AMINO-4-OXO-4-ALPHA-HYDROXY-  -333.24045392 -333.24045392 -333.24045392 -333.24045392 -333.24045392 -333.24045392 -333.24045392 -333.24045392 -333.24045392 -333.24045392 -333.24045392 -333.24045392 -333.24045392 -333.24045392 -333.24045392
C         -0.12018       -0.74298       -0.14809
N          0.85257       -1.60376       -0.14930
C          2.13311       -1.15852       -0.08333
N          3.09763       -2.07489       -0.32920
N          2.49144        0.06410        0.13542
C          1.57161        1.04730        0.32657
O          1.84832        2.19090        0.68167
C          0.16936        0.70701        0.01492
N         -0.88111        1.67915       -0.24135
O         -0.63615        2.98755        0.33976
C         -2.24533        1.18985        0.10792
O         -3.14512        2.19948       -0.37745
C         -2.52200        1.06524        1.65753
O         -2.34174        2.34944        2.29668
C         -3.94964        0.58931        2.02018
O         -4.20723       -0.73026        1.53708
C         -4.18314        0.61202        3.54428
O         -5.47963        0.10137        3.85972
C         -2.46613       -0.16809       -0.67934
O         -2.35563        0.04337       -2.10010
N         -1.44102       -1.15916       -0.31872
O         -1.84126       -2.00459        0.73324
H          2.77036       -2.84740       -0.89495
H          3.96221       -1.65902       -0.65260
H          0.30820        3.01578        0.61474
H         -2.53137        2.85526       -0.76206
H         -1.79472        0.38184        2.10875
H         -2.67309        3.01314        1.65821
H         -4.69382        1.24570        1.55404
H         -3.95432       -1.36024        2.23863
H         -4.10113        1.61987        3.96021
H         -3.46090       -0.03647        4.05102
H         -6.12142        0.55761        3.28703
H         -3.47446       -0.56247       -0.56147
H         -1.49548        0.47082       -2.23764
H         -2.22843       -2.76689        0.25960
36 36 36 36 36 36 36 36 36 36 36 36 36 36 36 36 36 36 36 36 36 36 36 36 36 36 36 36 36 36 36 36 36 36 36 36 36 36 36 36 36 36 36 36 36 36 36 36 36 36 36 36 36 36 36 36 36 36 36 36 36 36 36 36 36 36 36 36 36 36 36 36 36 36 36 36 36 36 36 36 36 36 36 36 36 36 36 36 36 36 36 36 36 36 36 36 36 36 36 36 36 36 36
C12(=NC(N)=NC(=O)[C-]1N(O)C(O)(C(O)C(O)CO)C(O)N(O)2)
InChI=1S/C9H14N5O8/c10-8-11-5-3(6(18)12-8)14(22)9(20,7(19)13(5)21)4(17)2(16)1-15/h2,4,7,15-17,19-22H,1H2,(H2,10,12,18)/q-1
