16
metacyc 2-AMINOMUCONATE_SEMIALDEHYDE  -16.5909813048 -16.5909813048 -16.5909813048 -16.5909813048 -16.5909813048 -16.5909813048 -16.5909813048 -16.5909813048 -16.5909813048 -16.5909813048 -16.5909813048 -16.5909813048 -16.5909813048 -16.5909813048 -16.5909813048
C          1.12240       -0.10775        0.05283
C          0.27284       -1.26524        0.17988
C         -1.06965       -1.33056        0.13143
C         -2.07516       -0.05227        0.00609
O         -3.28223       -0.38137        0.24787
O         -1.57079        1.06209       -0.29070
N         -1.71156       -2.59210        0.19630
C          1.15277        0.92823        0.90065
C          2.03130        2.07044        0.59448
H          2.43932        2.10410       -0.42775
O          2.32971        2.91599        1.43209
H          1.78046       -0.13653       -0.81186
H          0.82217       -2.20253        0.22893
H         -1.28751       -3.19759        0.88672
H         -2.69835       -2.37734        0.41761
H          0.52138        1.00518        1.77746
16 16 16 16 16 16 16 16 16 16 16 16 16 16 16 16 16 16 16 16 16 16 16 16 16 16 16 16 16 16 16 16 16 16 16 16 16 16 16 16 16 16 16
C(C=C(C([O-])=O)N)=C[CH]=O
InChI=1S/C6H7NO3/c7-5(6(9)10)3-1-2-4-8/h1-4H,7H2,(H,9,10)/p-1/b2-1+,5-3-
