24
metacyc 2-CARBOXY-D-ARABINITOL  -658.60222664 -658.60222664 -658.60222664 -658.60222664 -658.60222664 -658.60222664 -658.60222664 -658.60222664 -658.60222664 -658.60222664 -658.60222664 -658.60222664 -658.60222664 -658.60222664 -658.60222664
C          1.24641        0.14219        0.15112
C          0.58621        0.00283       -1.23132
C          1.17396       -1.18040       -2.05729
C          0.53339       -1.31256       -3.45845
C          0.87814       -0.05956       -4.30315
O          2.11734        0.15864       -4.46282
O         -0.13985        0.56480       -4.72527
C          1.03478       -2.49296       -4.30192
O          2.44293       -2.52718       -4.54068
O         -0.91907       -1.40200       -3.34043
O          2.60834       -1.09404       -2.07954
O         -0.82172       -0.16209       -1.00633
O          2.65211        0.36779        0.10193
H          1.06076       -0.75504        0.75151
H          0.79319        0.97681        0.69447
H          0.74566        0.94091       -1.77747
H          0.92710       -2.09720       -1.50761
H          0.53352       -2.51088       -5.27746
H          0.76695       -3.43465       -3.81093
H          2.69645       -1.60969       -4.79535
H         -1.21581       -0.67770       -3.95531
H          2.83600       -0.61271       -2.91058
H         -1.17803       -0.61325       -1.80253
H          2.99062       -0.23167       -0.60162
24 24 24 24 24 24 24 24 24 24 24 24 24 24 24 24 24 24 24 24 24 24 24 24 24 24 24 24 24 24 24 24 24 24 24 24 24 24 24 24 24 24 24 24 24 24 24 24 24 24 24 24 24 24 24 24 24 24 24 24 24 24 24 24 24 24 24
C(C(C(C(C([O-])=O)(CO)O)O)O)O
InChI=1S/C6H12O7/c7-1-3(9)4(10)6(13,2-8)5(11)12/h3-4,7-10,13H,1-2H2,(H,11,12)/p-1/t3-,4-,6-/m1/s1
