16
metacyc 2-CH2-GLUTARATE  -341.253382944 -341.253382944 -341.253382944 -341.253382944 -341.253382944 -341.253382944 -341.253382944 -341.253382944 -341.253382944 -341.253382944 -341.253382944 -341.253382944 -341.253382944 -341.253382944 -341.253382944
C          3.07761       -0.87455       -0.85878
C          2.43520       -0.05005       -0.00849
C          0.86739       -0.05115       -0.00965
O          0.31537       -0.84754       -0.83095
O          0.30768        0.73733        0.80351
C          3.13075        0.89735        0.96853
C          4.66554        0.87955        0.95017
C          5.40531        1.81279        1.91260
O          4.71536        2.54699        2.66977
O          6.67178        1.73719        1.83464
H          2.51794       -1.52243       -1.52693
H          4.15662       -0.92600       -0.91184
H          2.79234        0.65411        1.98362
H          2.79234        1.91946        0.75666
H          5.01741        1.13410       -0.05839
H          5.01741       -0.13637        1.17355
16 16 16 16 16 16 16 16 16 16 16 16 16 16 16 16 16 16 16 16 16 16 16 16 16 16 16 16 16 16 16 16 16 16 16 16 16 16 16 16 16 16 16
C=C(C([O-])=O)CCC(=O)[O-]
InChI=1S/C6H8O4/c1-4(6(9)10)2-3-5(7)8/h1-3H2,(H,7,8)(H,9,10)/p-2
