19
metacyc 2-COUMARATE  -0.68708710784 -0.68708710784 -0.68708710784 -0.68708710784 -0.68708710784 -0.68708710784 -0.68708710784 -0.68708710784 -0.68708710784 -0.68708710784 -0.68708710784 -0.68708710784 -0.68708710784 -0.68708710784 -0.68708710784
C          1.00181        0.35713        0.31552
C          0.29990        1.19548       -0.75523
C          0.93991        1.59857       -1.86223
C          0.29876        2.39396       -2.90986
C         -0.38888        1.80941       -3.98208
C         -0.93035        2.59543       -4.99830
C         -0.79944        3.98325       -4.94633
C         -0.13527        4.58013       -3.87470
C          0.41026        3.78865       -2.86045
O         -0.55518        0.45459       -4.09597
O          0.27010        0.08435        1.30828
O          2.19673        0.03067        0.07582
H         -0.73811        1.45255       -0.56907
H          1.98399        1.33798       -2.02441
H         -1.44993        2.12285       -5.82596
H         -1.21615        4.59687       -5.73944
H         -0.03427        5.66059       -3.82760
H          0.93167        4.25852       -2.02956
H         -0.21135        0.05949       -3.27100
19 19 19 19 19 19 19 19 19 19 19 19 19 19 19 19 19 19 19 19 19 19 19 19 19 19 19 19 19 19 19 19 19 19 19 19 19 19 19 19 19 19 19 19 19 19 19 19 19 19 19 19
C(C=CC1(=C(C=CC=C1)O))([O-])=O
InChI=1S/C9H8O3/c10-8-4-2-1-3-7(8)5-6-9(11)12/h1-6,10H,(H,11,12)/p-1/b6-5+
