21
metacyc 2-DEHYDRO-3-DEOXY-D-GLUCONATE  -535.60204064 -535.60204064 -535.60204064 -535.60204064 -535.60204064 -535.60204064 -535.60204064 -535.60204064 -535.60204064 -535.60204064 -535.60204064 -535.60204064 -535.60204064 -535.60204064 -535.60204064
C          2.10554        0.24098        1.61289
O          1.27884        1.15731        1.90337
O          2.74226       -0.50954        2.42501
C          2.41007       -0.03709        0.13657
O          2.05533        0.78019       -0.71065
C          3.17646       -1.29602       -0.18823
C          4.68350       -1.08237       -0.01994
O          5.07162       -0.77904        1.32200
C          5.46914       -2.34239       -0.44010
O          5.14554       -2.74435       -1.77771
C          6.98966       -2.12637       -0.31030
O          7.70981       -3.30343       -0.69068
H          2.92882       -1.56541       -1.22099
H          2.81287       -2.10754        0.44948
H          4.98864       -0.23766       -0.64922
H          4.26890       -0.77521        1.90902
H          5.18777       -3.17937        0.21059
H          5.62284       -2.14822       -2.38074
H          7.27862       -1.87373        0.71406
H          7.32377       -1.32401       -0.97553
H          7.25060       -4.05445       -0.27482
21 21 21 21 21 21 21 21 21 21 21 21 21 21 21 21 21 21 21 21 21 21 21 21 21 21 21 21 21 21 21 21 21 21 21 21 21 21 21 21 21 21 21 21 21 21 21 21 21 21 21 21 21 21 21 21 21 21
C(=O)([O-])C(=O)CC(O)C(O)CO
InChI=1S/C6H10O6/c7-2-5(10)3(8)1-4(9)6(11)12/h3,5,7-8,10H,1-2H2,(H,11,12)/p-1/t3-,5+/m0/s1
