21
metacyc 2-DEHYDRO-3-DEOXY-D-GALACTONATE  -535.60204064 -535.60204064 -535.60204064 -535.60204064 -535.60204064 -535.60204064 -535.60204064 -535.60204064 -535.60204064 -535.60204064 -535.60204064 -535.60204064 -535.60204064 -535.60204064 -535.60204064
C          0.86927       -0.11938       -0.13085
O          0.29984       -0.86000        0.93991
C          2.40909       -0.05809       -0.10760
O          2.85733        0.67427       -1.25368
C          2.95653        0.54627        1.20949
O          2.52478       -0.29828        2.28626
C          4.47559        0.71312        1.15465
C          4.96488        1.45982        2.36967
C          5.27567        0.63388        3.62008
O          5.91420        1.18147        4.57308
O          4.84675       -0.56669        3.56684
O          5.05963        2.68616        2.42101
H          0.44818        0.89201       -0.11615
H          0.53589       -0.57685       -1.06926
H          0.88035       -0.71671        1.72313
H          2.78646       -1.08453       -0.19579
H          2.61638        1.60742       -1.11691
H          2.49878        1.53125        1.36816
H          3.32254       -0.62228        2.78534
H          4.78485        1.29762        0.28048
H          4.98470       -0.25260        1.09073
21 21 21 21 21 21 21 21 21 21 21 21 21 21 21 21 21 21 21 21 21 21 21 21 21 21 21 21 21 21 21 21 21 21 21 21 21 21 21 21 21 21 21 21 21 21 21 21 21 21 21 21 21 21 21 21 21 21
C(O)C(O)C(O)CC(C(=O)[O-])=O
InChI=1S/C6H10O6/c7-2-5(10)3(8)1-4(9)6(11)12/h3,5,7-8,10H,1-2H2,(H,11,12)/p-1/t3-,5-/m1/s1
