17
metacyc 2-DEHYDROPANTOYL-LACTONE  -56.153597888 -56.153597888 -56.153597888 -56.153597888 -56.153597888 -56.153597888 -56.153597888 -56.153597888 -56.153597888 -56.153597888 -56.153597888 -56.153597888 -56.153597888 -56.153597888 -56.153597888
C          1.01956        0.07582        0.09632
C          2.53836        0.08639        0.00271
C          3.00912        0.21647       -1.44634
C          3.17069        1.16436        0.82038
O          2.75003        2.29154        0.99879
C          4.47999        0.64363        1.38398
O          5.37018        1.30173        1.87318
O          4.46836       -0.69862        1.17058
C          3.17318       -1.10507        0.70847
H          0.58993        0.97410       -0.36131
H          0.68212        0.05518        1.13882
H          0.59956       -0.79820       -0.41307
H          2.63276        1.14111       -1.89875
H          2.65516       -0.62541       -2.05097
H          4.10252        0.24487       -1.52030
H          2.59823       -1.43668        1.58191
H          3.29171       -1.96409        0.03957
17 17 17 17 17 17 17 17 17 17 17 17 17 17 17 17 17 17 17 17 17 17 17 17 17 17 17 17 17 17 17 17 17 17 17 17 17 17 17 17 17 17 17 17 17 17
CC1(C)(C(=O)C(=O)OC1)
InChI=1S/C6H8O3/c1-6(2)3-9-5(8)4(6)7/h3H2,1-2H3
