19
metacyc 2-DEHYDROPANTOATE  -238.370735032 -238.370735032 -238.370735032 -238.370735032 -238.370735032 -238.370735032 -238.370735032 -238.370735032 -238.370735032 -238.370735032 -238.370735032 -238.370735032 -238.370735032 -238.370735032 -238.370735032
C          0.89882        0.01807       -0.04337
C          2.43479        0.01338       -0.09152
C          2.94646       -1.39232       -0.43915
O          3.58609       -2.08286        0.35858
C          2.65972       -2.01881       -1.82019
O          1.93260       -1.32872       -2.60296
O          3.16682       -3.15566       -2.07618
C          2.99118        1.03499       -1.10103
O          2.60182        2.37319       -0.76893
C          2.94092        0.38742        1.32061
H          0.44895       -0.18427       -1.01920
H          0.50937        0.98377        0.29690
H          0.52787       -0.74879        0.64697
H          2.66519        0.85786       -2.12856
H          4.08670        1.00713       -1.10754
H          1.66233        2.44150       -1.01250
H          2.57965       -0.32377        2.07286
H          2.60227        1.38407        1.62317
H          4.03638        0.37862        1.36299
19 19 19 19 19 19 19 19 19 19 19 19 19 19 19 19 19 19 19 19 19 19 19 19 19 19 19 19 19 19 19 19 19 19 19 19 19 19 19 19 19 19 19 19 19 19 19 19 19 19 19 19
CC(C(=O)C([O-])=O)(CO)C
InChI=1S/C6H10O4/c1-6(2,3-7)4(8)5(9)10/h7H,3H2,1-2H3,(H,9,10)/p-1
