19
metacyc 2-DEOXYRIBOSE  -162.292351752 -162.292351752 -162.292351752 -162.292351752 -162.292351752 -162.292351752 -162.292351752 -162.292351752 -162.292351752 -162.292351752 -162.292351752 -162.292351752 -162.292351752 -162.292351752 -162.292351752
C          2.91525        0.25543        1.41004
O          2.43772        1.56553        1.73032
C          2.52961       -0.10227       -0.03009
O          1.09269       -0.06162       -0.11414
C          3.09447        0.86240       -1.10237
O          2.57328        2.18364       -0.88591
C          4.61283        0.92988       -1.16661
C          5.17747       -0.41151       -1.52109
H          4.99815       -0.75758       -2.55454
O          5.75509       -1.12573       -0.70667
H          2.46311       -0.44499        2.12089
H          3.99909        0.24028        1.55380
H          1.47824        1.45859        1.88626
H          2.83827       -1.13063       -0.24450
H          0.86463        0.85862       -0.35657
H          2.70331        0.55333       -2.07944
H          2.74787        2.41090        0.05506
H          5.04698        1.28150       -0.22456
H          4.93315        1.64804       -1.93116
19 19 19 19 19 19 19 19 19 19 19 19 19 19 19 19 19 19 19 19 19 19 19 19 19 19 19 19 19 19 19 19 19 19 19 19 19 19 19 19 19 19 19 19 19 19 19 19 19 19 19 19
C(O)C(O)C(O)C[CH]=O
InChI=1S/C5H10O4/c6-2-1-4(8)5(9)3-7/h2,4-5,7-9H,1,3H2/t4-,5+/m0/s1
