20
metacyc 2-DEHYDRO-3-DEOXY-D-FUCONATE  -343.13808248 -343.13808248 -343.13808248 -343.13808248 -343.13808248 -343.13808248 -343.13808248 -343.13808248 -343.13808248 -343.13808248 -343.13808248 -343.13808248 -343.13808248 -343.13808248 -343.13808248
C          0.80070        0.05124       -0.09940
C          2.32053        0.02506       -0.01230
O          2.76132       -1.00057       -0.91345
C          2.91977        1.42555       -0.31333
O          2.45698        2.37468        0.65599
C          4.42734        1.40045       -0.26003
O          4.92043        1.04343        0.98262
C          5.19223        1.70863       -1.31480
C          6.71312        1.73783       -1.40684
O          7.31047        1.01382       -0.56776
O          7.16548        2.44631       -2.35825
H          0.39139       -0.94190        0.11720
H          0.48019        0.30896       -1.11490
H          0.36547        0.76782        0.60236
H          2.59425       -0.28810        1.00369
H          3.02386       -0.57312       -1.74656
H          2.58121        1.76724       -1.30060
H          3.22825        2.52825        1.23769
H          5.71934        0.49949        0.79993
H          4.72850        1.99856       -2.25060
20 20 20 20 20 20 20 20 20 20 20 20 20 20 20 20 20 20 20 20 20 20 20 20 20 20 20 20 20 20 20 20 20 20 20 20 20 20 20 20 20 20 20 20 20 20 20 20 20 20 20 20 20 20 20
CC(O)C(O)C(O)=CC(=O)[O-]
InChI=1S/C6H10O5/c1-3(7)6(11)4(8)2-5(9)10/h2-3,6-8,11H,1H3,(H,9,10)/p-1/b4-2-/t3-,6+/m1/s1
