17
metacyc 2-DH-3-DO-D-ARABINONATE  -469.169593216 -469.169593216 -469.169593216 -469.169593216 -469.169593216 -469.169593216 -469.169593216 -469.169593216 -469.169593216 -469.169593216 -469.169593216 -469.169593216 -469.169593216 -469.169593216 -469.169593216
C          0.88990        0.01895        0.02646
O          0.32122       -0.86417        0.99791
C          2.43034       -0.04369        0.04522
O          2.86709       -1.37828       -0.27246
C          3.05717        0.91618       -0.95750
C          2.76265        2.35408       -0.61494
O          2.60369        2.75026        0.54114
C          2.66644        3.37002       -1.75711
O          2.88635        2.89606       -2.91763
O          2.36092        4.56903       -1.46867
H          0.52262        1.02645        0.24544
H          0.50244       -0.28900       -0.94826
H          0.72424       -0.62614        1.85083
H          2.79037        0.15521        1.06075
H          2.61568       -1.54694       -1.19753
H          2.68758        0.67299       -1.96039
H          4.14571        0.78598       -0.98098
17 17 17 17 17 17 17 17 17 17 17 17 17 17 17 17 17 17 17 17 17 17 17 17 17 17 17 17 17 17 17 17 17 17 17 17 17 17 17 17 17 17 17 17 17 17
C(O)C(O)CC(=O)C(=O)[O-]
InChI=1S/C5H8O5/c6-2-3(7)1-4(8)5(9)10/h3,6-7H,1-2H2,(H,9,10)/p-1/t3-/m0/s1
