11
metacyc 2-FUROATE  -296.891175696 -296.891175696 -296.891175696 -296.891175696 -296.891175696 -296.891175696 -296.891175696 -296.891175696 -296.891175696 -296.891175696 -296.891175696 -296.891175696 -296.891175696 -296.891175696 -296.891175696
C          1.05453        0.09628        0.05831
C          0.30914       -1.16749       -0.19668
O          0.82016       -2.44124       -0.10340
C         -0.18045       -3.30239       -0.41384
C         -1.33587       -2.62066       -0.70856
C         -1.02386       -1.24854       -0.56963
O          2.27517       -0.00660        0.39264
O          0.39999        1.17925       -0.08160
H          0.08604       -4.34798       -0.37970
H         -2.28334       -3.05484       -0.98807
H         -1.67001       -0.39336       -0.71637
11 11 11 11 11 11 11 11 11 11 11 11 11 11 11 11 11 11 11 11 11 11 11 11 11 11 11 11
C(C1(OC=CC=1))([O-])=O
InChI=1S/C5H4O3/c6-5(7)4-2-1-3-8-4/h1-3H,(H,6,7)/p-1
