16
metacyc 2-HYDROXYMETHYL-4-OXOBUTANOATE  -314.19419556 -314.19419556 -314.19419556 -314.19419556 -314.19419556 -314.19419556 -314.19419556 -314.19419556 -314.19419556 -314.19419556 -314.19419556 -314.19419556 -314.19419556 -314.19419556 -314.19419556
C          0.99065        0.10415       -0.01690
C          0.43033        0.42049       -1.37503
H          0.78474       -0.22034       -2.19722
O         -0.40000        1.30073       -1.58846
C          2.51882        0.13213       -0.01793
C          3.06177        1.52914       -0.31990
O          4.47729        1.51724       -0.50308
C          3.07384       -0.27769        1.35357
O          4.33094       -0.17028        1.46221
O          2.23751       -0.69320        2.20293
H          0.62300       -0.89643        0.24107
H          0.57835        0.81296        0.70934
H          2.91120       -0.58218       -0.75479
H          2.81752        2.24384        0.47314
H          2.64323        1.91259       -1.25589
H          4.81379        0.97915        0.26215
16 16 16 16 16 16 16 16 16 16 16 16 16 16 16 16 16 16 16 16 16 16 16 16 16 16 16 16 16 16 16 16 16 16 16 16 16 16 16 16 16 16 16
C([CH]=O)C(CO)C(=O)[O-]
InChI=1S/C5H8O4/c6-2-1-4(3-7)5(8)9/h2,4,7H,1,3H2,(H,8,9)/p-1
