15
metacyc 2-HYDROXYSUCCINAMATE  -406.87450256 -406.87450256 -406.87450256 -406.87450256 -406.87450256 -406.87450256 -406.87450256 -406.87450256 -406.87450256 -406.87450256 -406.87450256 -406.87450256 -406.87450256 -406.87450256 -406.87450256
C          1.18623       -0.01397       -0.07935
C          0.62658        0.50305       -1.39544
C         -0.88519        0.14711       -1.47888
O         -1.19374       -1.06763       -1.37785
O         -1.61796        1.17278       -1.65601
O          0.76806        1.95333       -1.46650
C          2.67586        0.22021        0.01675
N          3.04908        1.53334       -0.03914
O          3.50854       -0.66478        0.18747
H          1.00823       -1.08972        0.03423
H          0.71540        0.49286        0.77188
H          1.15102        0.07969       -2.25913
H         -0.17329        2.22859       -1.63096
H          2.39522        2.15542       -0.52140
H          4.03497        1.71985       -0.13323
15 15 15 15 15 15 15 15 15 15 15 15 15 15 15 15 15 15 15 15 15 15 15 15 15 15 15 15 15 15 15 15 15 15 15 15 15 15 15 15
C(C(C(=O)[O-])O)C(N)=O
InChI=1S/C4H7NO4/c5-3(7)1-2(6)4(8)9/h2,6H,1H2,(H2,5,7)(H,8,9)/p-1
