16
metacyc 2-KETO-GLUTARAMATE  -356.24816532 -356.24816532 -356.24816532 -356.24816532 -356.24816532 -356.24816532 -356.24816532 -356.24816532 -356.24816532 -356.24816532 -356.24816532 -356.24816532 -356.24816532 -356.24816532 -356.24816532
C          1.05006        0.04127       -0.03296
C          0.47323       -1.11105        0.77732
C          0.60368       -1.00729        2.28815
N          1.82975       -0.72247        2.80276
O         -0.33010       -1.26527        3.04635
C          2.55612        0.05275       -0.02907
O          3.18994        0.65054        0.85378
C          3.34374       -0.76229       -1.05210
O          2.63203       -1.44332       -1.85952
O          4.60835       -0.70632       -1.00991
H          0.69877        1.00615        0.35270
H          0.70021       -0.02088       -1.07097
H          0.88571       -2.07478        0.46279
H         -0.60768       -1.13918        0.57390
H          2.56085       -0.26997        2.25301
H          1.90683       -0.62708        3.80269
16 16 16 16 16 16 16 16 16 16 16 16 16 16 16 16 16 16 16 16 16 16 16 16 16 16 16 16 16 16 16 16 16 16 16 16 16 16 16 16 16 16 16
C(CC(N)=O)C(=O)C(=O)[O-]
InChI=1S/C5H7NO4/c6-4(8)2-1-3(7)5(9)10/h1-2H2,(H2,6,8)(H,9,10)/p-1
