18
metacyc 2-KETO-3-METHYL-VALERATE  -73.27008248 -73.27008248 -73.27008248 -73.27008248 -73.27008248 -73.27008248 -73.27008248 -73.27008248 -73.27008248 -73.27008248 -73.27008248 -73.27008248 -73.27008248 -73.27008248 -73.27008248
C          0.89195        0.09204       -0.06928
C          2.40913        0.00493        0.01466
C          2.92349       -0.47760        1.37860
C          2.44494       -1.88675        1.72919
C          4.44539       -0.44553        1.36461
O          5.13628       -1.40535        1.01122
C          5.16723        0.85104        1.76700
O          4.40659        1.81861        2.09743
O          6.43804        0.86373        1.74211
H          0.59344        0.52058       -1.03159
H          0.48956        0.72861        0.72475
H          0.42798       -0.89559        0.00767
H          2.82379        0.99787       -0.20015
H          2.77540       -0.65580       -0.78093
H          2.56554        0.19174        2.16933
H          2.71337       -2.60732        0.94891
H          1.35932       -1.91761        1.86314
H          2.90135       -2.22784        2.66530
18 18 18 18 18 18 18 18 18 18 18 18 18 18 18 18 18 18 18 18 18 18 18 18 18 18 18 18 18 18 18 18 18 18 18 18 18 18 18 18 18 18 18 18 18 18 18 18 18
CCC(C)C(=O)C([O-])=O
InChI=1S/C6H10O3/c1-3-4(2)5(7)6(8)9/h4H,3H2,1-2H3,(H,8,9)/p-1/t4-/m0/s1
