20
metacyc 2-KETO-L-GULONOLACTONE  -521.288886256 -521.288886256 -521.288886256 -521.288886256 -521.288886256 -521.288886256 -521.288886256 -521.288886256 -521.288886256 -521.288886256 -521.288886256 -521.288886256 -521.288886256 -521.288886256 -521.288886256
C          0.92498        0.58445        0.52607
C          0.44184       -0.52026        1.47590
O          0.92550       -0.22703        2.80216
C         -1.08471       -0.63234        1.50477
C         -1.63029       -1.76138        2.38629
O         -0.90029       -2.02842        3.57137
C         -2.95353       -1.14792        2.71049
C         -2.80720        0.35598        2.65086
O         -1.62275        0.59937        2.03087
O         -3.57736        1.18043        3.08771
O         -3.99381       -1.72007        2.96968
O          2.34877        0.57473        0.46319
H          0.62192        1.57627        0.87676
H          0.53952        0.43526       -0.48684
H          0.88730       -1.47695        1.18037
H          0.71551        0.70933        2.99204
H         -1.46965       -0.73729        0.48143
H         -1.74487       -2.68799        1.81750
H         -0.22647       -1.33159        3.71641
H          2.67922        0.45020        1.37311
20 20 20 20 20 20 20 20 20 20 20 20 20 20 20 20 20 20 20 20 20 20 20 20 20 20 20 20 20 20 20 20 20 20 20 20 20 20 20 20 20 20 20 20 20 20 20 20 20 20 20 20 20 20 20
C(C(O)C1(C(O)C(C(O1)=O)=O))O
InChI=1S/C6H8O6/c7-1-2(8)5-3(9)4(10)6(11)12-5/h2-3,5,7-9H,1H2
