15
metacyc 2-KETO-ISOVALERATE  -165.99693648 -165.99693648 -165.99693648 -165.99693648 -165.99693648 -165.99693648 -165.99693648 -165.99693648 -165.99693648 -165.99693648 -165.99693648 -165.99693648 -165.99693648 -165.99693648 -165.99693648
C          0.92318       -0.00266       -0.02499
C          2.44552        0.03320        0.04159
C          2.99222        0.54394       -1.28126
C          3.30021       -0.46854       -2.39749
O          3.73591       -0.02534       -3.50620
O          3.08573       -1.68869       -2.10191
O          3.17172        1.74038       -1.51939
C          2.92192        0.91581        1.19243
H          0.58114       -0.67017       -0.82300
H          0.51050        0.99161       -0.23037
H          0.49898       -0.35919        0.91931
H          2.82849       -0.97635        0.22445
H          2.55970        1.94446        1.08981
H          4.01644        0.95176        1.22467
H          2.56745        0.52612        2.15228
15 15 15 15 15 15 15 15 15 15 15 15 15 15 15 15 15 15 15 15 15 15 15 15 15 15 15 15 15 15 15 15 15 15 15 15 15 15 15 15
CC(C(C([O-])=O)=O)C
InChI=1S/C5H8O3/c1-3(2)4(6)5(7)8/h3H,1-2H3,(H,7,8)/p-1
