14
metacyc 2-KETOGLUTARATE  -626.61157184 -626.61157184 -626.61157184 -626.61157184 -626.61157184 -626.61157184 -626.61157184 -626.61157184 -626.61157184 -626.61157184 -626.61157184 -626.61157184 -626.61157184 -626.61157184 -626.61157184
C          1.10798        0.01814       -0.00672
C          0.41126       -0.53132       -1.25036
C         -1.11686       -0.51797       -1.22014
O         -1.67156       -0.05860       -0.18415
O         -1.66707       -0.98112       -2.26481
C          2.62264       -0.02934       -0.11412
O          3.23849       -0.46112       -1.09156
C          3.46554        0.49351        1.06957
O          4.73718        0.44955        0.96992
O          2.81906        0.93714        2.07412
H          0.81247       -0.56540        0.87227
H          0.81253        1.06092        0.15376
H          0.73081       -1.56790       -1.41815
H          0.73074        0.04266       -2.12969
14 14 14 14 14 14 14 14 14 14 14 14 14 14 14 14 14 14 14 14 14 14 14 14 14 14 14 14 14 14 14 14 14 14 14 14 14
C(CC([O-])=O)C(=O)C([O-])=O
InChI=1S/C5H6O5/c6-3(5(9)10)1-2-4(7)8/h1-2H2,(H,7,8)(H,9,10)/p-2
