19
metacyc 2-KETO-3-DEOXY-D-GLUCARATE  -849.274596 -849.274596 -849.274596 -849.274596 -849.274596 -849.274596 -849.274596 -849.274596 -849.274596 -849.274596 -849.274596 -849.274596 -849.274596 -849.274596 -849.274596
C         -1.05349       -2.03181       -2.19048
C         -1.45616       -0.55140       -2.26548
C         -1.09948        0.39088       -1.13616
C         -1.91012        0.17998        0.14470
C         -1.47837        1.19448        1.22174
C         -2.21662        0.87033        2.55542
O         -3.48034        0.84268        2.49748
O         -1.44090        0.70485        3.54951
O         -0.04879        1.17232        1.45504
O         -3.30355        0.37783       -0.15991
O         -1.95836       -0.15498       -3.32313
O         -1.36654       -2.79282       -3.16429
O         -0.38006       -2.37698       -1.16465
H         -1.27338        1.40687       -1.51162
H         -0.02382        0.29621       -0.95304
H         -1.78831       -0.84491        0.51187
H         -1.75292        2.21525        0.92953
H         -0.00081        0.85612        2.39043
H         -3.74953        0.43520        0.72080
19 19 19 19 19 19 19 19 19 19 19 19 19 19 19 19 19 19 19 19 19 19 19 19 19 19 19 19 19 19 19 19 19 19 19 19 19 19 19 19 19 19 19 19 19 19 19 19 19 19 19 19
C(C(CC(C(C([O-])=O)O)O)=O)([O-])=O
InChI=1S/C6H8O7/c7-2(4(9)6(12)13)1-3(8)5(10)11/h2,4,7,9H,1H2,(H,10,11)(H,12,13)/p-2/t2-,4-/m0/s1
