14
metacyc 2-METHYL-L-SERINE  -139.410528544 -139.410528544 -139.410528544 -139.410528544 -139.410528544 -139.410528544 -139.410528544 -139.410528544 -139.410528544 -139.410528544 -139.410528544 -139.410528544 -139.410528544 -139.410528544 -139.410528544
C          1.02228       -0.00527        0.08351
C          2.54887        0.06582        0.06905
N          3.07700       -0.98256        0.96324
C          3.06586       -0.23763       -1.36753
O          2.63094       -1.29884       -1.90483
O          3.85307        0.62086       -1.86536
C          3.05702        1.42051        0.56712
O          2.61109        1.69149        1.90938
H          0.65087       -0.98320       -0.24446
H          0.59493        0.74572       -0.59192
H          0.61524        0.17802        1.08414
H          2.69573        2.23955       -0.06383
H          4.15296        1.46886        0.57651
H          2.76707        0.85857        2.39176
14 14 14 14 14 14 14 14 14 14 14 14 14 14 14 14 14 14 14 14 14 14 14 14 14 14 14 14 14 14 14 14 14 14 14 14 14
CC([N+])(C(=O)[O-])CO
InChI=1S/C4H9NO3/c1-4(5,2-6)3(7)8/h6H,2,5H2,1H3,(H,7,8)/t4-/m0/s1
