18
metacyc 2-OXOHEXANOATE  -65.697055032 -65.697055032 -65.697055032 -65.697055032 -65.697055032 -65.697055032 -65.697055032 -65.697055032 -65.697055032 -65.697055032 -65.697055032 -65.697055032 -65.697055032 -65.697055032 -65.697055032
C          0.98088        0.10831        0.08398
C          2.50120        0.07374        0.05454
C          3.01054       -0.98678       -0.92010
C          4.53702       -1.03289       -0.96216
C          5.04234       -2.08425       -1.92787
O          4.30840       -2.81232       -2.59799
C          6.56155       -2.24761       -2.07715
O          7.26099       -1.46453       -1.35617
O          6.99682       -3.12669       -2.88543
H          0.63059        0.87161        0.78559
H          0.57318       -0.85720        0.40044
H          0.57525        0.34396       -0.90523
H          2.87656       -0.13412        1.06323
H          2.87852        1.06102       -0.23607
H          2.62149       -0.77931       -1.92485
H          2.62120       -1.97040       -0.62889
H          4.92885       -1.26505        0.03430
H          4.92910       -0.05964       -1.27753
18 18 18 18 18 18 18 18 18 18 18 18 18 18 18 18 18 18 18 18 18 18 18 18 18 18 18 18 18 18 18 18 18 18 18 18 18 18 18 18 18 18 18 18 18 18 18 18 18
CCCCC(=O)C(=O)[O-]
InChI=1S/C6H10O3/c1-2-3-4-5(7)6(8)9/h2-4H2,1H3,(H,8,9)/p-1
