10
metacyc 2-OXOBUT-3-ENANOATE  -263.0844808 -263.0844808 -263.0844808 -263.0844808 -263.0844808 -263.0844808 -263.0844808 -263.0844808 -263.0844808 -263.0844808 -263.0844808 -263.0844808 -263.0844808 -263.0844808 -263.0844808
C          1.12637       -0.01884        0.00876
C          2.46465        0.01762        0.00068
C          3.20077        1.28537       -0.28025
O          2.62228        2.34677       -0.51545
C          4.74607        1.27015       -0.27688
O          5.28243        0.13947       -0.02632
O          5.35899        2.35801       -0.51794
H          0.59966       -0.94264        0.21347
H          0.54204        0.87498       -0.18931
H          3.07063       -0.86013        0.19519
10 10 10 10 10 10 10 10 10 10 10 10 10 10 10 10 10 10 10 10 10 10 10 10 10
C=CC(=O)C(=O)[O-]
InChI=1S/C4H4O3/c1-2-3(5)4(6)7/h2H,1H2,(H,6,7)/p-1
