12
metacyc 2-OXOBUTANOATE  -251.150733744 -251.150733744 -251.150733744 -251.150733744 -251.150733744 -251.150733744 -251.150733744 -251.150733744 -251.150733744 -251.150733744 -251.150733744 -251.150733744 -251.150733744 -251.150733744 -251.150733744
C          1.08512        0.04472        0.05293
C          2.60114        0.11486        0.00005
C          3.09291        1.25710       -0.86109
O          2.35113        2.04261       -1.45328
C          4.61130        1.44201       -1.00049
O          5.31813        0.59557       -0.36236
O          5.03867        2.39750       -1.72084
H          0.76363       -0.79053        0.68263
H          0.66299       -0.09841       -0.94732
H          0.66299        0.96696        0.46582
H          2.99338       -0.82208       -0.40901
H          2.99339        0.25027        1.01339
12 12 12 12 12 12 12 12 12 12 12 12 12 12 12 12 12 12 12 12 12 12 12 12 12 12 12 12 12 12 12
CCC(=O)C(=O)[O-]
InChI=1S/C4H6O3/c1-2-3(5)4(6)7/h2H2,1H3,(H,6,7)/p-1
