13
metacyc 2-OXOSUCCINAMATE  -448.97491472 -448.97491472 -448.97491472 -448.97491472 -448.97491472 -448.97491472 -448.97491472 -448.97491472 -448.97491472 -448.97491472 -448.97491472 -448.97491472 -448.97491472 -448.97491472 -448.97491472
C          1.08452        0.24414       -0.09718
C          0.29813        1.21197       -0.93257
N          0.88265        2.13168       -1.71467
O         -0.93838        1.17772       -0.91003
C          2.56674        0.07865        0.04332
O          2.98097       -0.80943        0.80489
C          3.65652        0.89567       -0.65756
O          3.27135        1.81270       -1.44950
O          4.86903        0.60960       -0.40694
H          0.72355       -0.74601       -0.41059
H          0.72477        0.40944        0.92840
H          1.90902        2.20856       -1.78493
H          0.32753        2.76392       -2.26569
13 13 13 13 13 13 13 13 13 13 13 13 13 13 13 13 13 13 13 13 13 13 13 13 13 13 13 13 13 13 13 13 13 13
C(C(N)=O)C(=O)C([O-])=O
InChI=1S/C4H5NO4/c5-3(7)1-2(6)4(8)9/h1H2,(H2,5,7)(H,8,9)/p-1
