16
metacyc 2-UREIDO-PROPIONATE  -228.212999744 -228.212999744 -228.212999744 -228.212999744 -228.212999744 -228.212999744 -228.212999744 -228.212999744 -228.212999744 -228.212999744 -228.212999744 -228.212999744 -228.212999744 -228.212999744 -228.212999744
C          0.94199        0.01029       -0.10258
C          2.45496       -0.00049        0.05962
N          2.87729       -1.00051        1.05649
C          2.71151       -0.88537        2.39332
N          3.30730       -1.90249        3.06784
O          2.08472       -0.01939        2.98558
C          3.12365       -0.26865       -1.33491
O          2.80681        0.51178       -2.27358
O          3.93976       -1.24699       -1.33050
H          0.44473        0.25482        0.84244
H          0.57311       -0.96896       -0.42479
H          0.62076        0.75050       -0.84311
H          2.79597        0.97930        0.41420
H          3.65260       -1.55287        0.69865
H          3.38364       -2.77260        2.56383
H          3.04285       -1.95555        4.03979
16 16 16 16 16 16 16 16 16 16 16 16 16 16 16 16 16 16 16 16 16 16 16 16 16 16 16 16 16 16 16 16 16 16 16 16 16 16 16 16 16 16 16
CC(NC(N)=O)C([O-])=O
InChI=1S/C4H8N2O3/c1-2(3(7)8)6-4(5)9/h2H,1H3,(H,7,8)(H3,5,6,9)/p-1
