18
metacyc 246-TRINITROBENZENE  -545.3703836 -545.3703836 -545.3703836 -545.3703836 -545.3703836 -545.3703836 -545.3703836 -545.3703836 -545.3703836 -545.3703836 -545.3703836 -545.3703836 -545.3703836 -545.3703836 -545.3703836
C         -0.70150        1.21737       -0.00195
C          0.70129        1.22003       -0.00022
C          1.42437        0.01798        0.00086
C          0.72532       -1.19820        0.00044
C         -0.67723       -1.22341       -0.00130
C         -1.38096       -0.00990       -0.00260
N         -2.85172       -0.02456       -0.00484
O         -3.43410        1.06702       -0.00731
O         -3.41223       -1.12753       -0.00421
N          1.47345       -2.46454        0.00188
O          2.70891       -2.39842        0.00309
O          0.81934       -3.51471        0.00181
N          1.42414        2.50096        0.00052
O          0.74934        3.53795        0.00020
O          2.66066        2.45939        0.00145
H         -1.25606        2.15624       -0.00279
H          2.51472        0.02881        0.00206
H         -1.21302       -2.17312       -0.00167
18 18 18 18 18 18 18 18 18 18 18 18 18 18 18 18 18 18 18 18 18 18 18 18 18 18 18 18 18 18 18 18 18 18 18 18 18 18 18 18 18 18 18 18 18 18 18 18 18
C1(C(=CC(=CC=1[N+]([O-])=O)[N+]([O-])=O)[N+](=O)[O-])
InChI=1S/C6H3N3O6/c10-7(11)4-1-5(8(12)13)3-6(2-4)9(14)15/h1-3H
