20
metacyc 26-DIFLUORO-4-HYDROXYPHENYLPYRUVATE  -611.76966864 -611.76966864 -611.76966864 -611.76966864 -611.76966864 -611.76966864 -611.76966864 -611.76966864 -611.76966864 -611.76966864 -611.76966864 -611.76966864 -611.76966864 -611.76966864 -611.76966864
C          0.79818        2.36461        1.25737
C          0.13849        1.27775        0.40575
C         -1.26395        0.85901        0.78914
C         -1.80985       -0.20307       -0.12926
C         -1.58930       -1.55663        0.12950
C         -1.95664       -2.54279       -0.78386
C         -2.55611       -2.16609       -1.97969
C         -2.82376       -0.83075       -2.24922
C         -2.44278        0.13945       -1.32563
F         -2.68604        1.42679       -1.61132
O         -2.88378       -3.09092       -2.92742
F         -1.00403       -1.93590        1.27490
O          0.78083        0.80136       -0.53214
O          0.08303        2.80622        2.21366
O          1.97669        2.73337        0.95735
H         -1.91908        1.73741        0.76605
H         -1.25179        0.48525        1.81968
H         -1.75182       -3.57916       -0.54340
H         -3.29298       -0.53202       -3.17982
H         -2.40243       -3.91097       -2.72571
20 20 20 20 20 20 20 20 20 20 20 20 20 20 20 20 20 20 20 20 20 20 20 20 20 20 20 20 20 20 20 20 20 20 20 20 20 20 20 20 20 20 20 20 20 20 20 20 20 20 20 20 20 20 20
C(C(CC1(C(=CC(=CC(F)=1)O)F))=O)([O-])=O
InChI=1S/C9H6F2O4/c10-6-1-4(12)2-7(11)5(6)3-8(13)9(14)15/h1-2,12H,3H2,(H,14,15)/p-1
