16
metacyc 2CH2-3CH3-SUCC  -348.82643968 -348.82643968 -348.82643968 -348.82643968 -348.82643968 -348.82643968 -348.82643968 -348.82643968 -348.82643968 -348.82643968 -348.82643968 -348.82643968 -348.82643968 -348.82643968 -348.82643968
C          1.13399       -0.36566        0.38950
C          2.34847       -0.02303       -0.07720
C          3.07944       -0.76853       -1.19084
C          3.92093       -1.91013       -0.61786
C          2.22589       -1.37689       -2.33260
O          1.49031       -2.37515       -2.05005
O          2.40780       -0.86973       -3.48433
C          3.06451        1.20733        0.56427
O          4.32694        1.22636        0.47555
O          2.31455        2.04102        1.16179
H          0.59618       -1.21819       -0.01187
H          0.66164        0.20155        1.18370
H          3.76164       -0.05880       -1.67773
H          3.30379       -2.65131       -0.09639
H          4.66235       -1.53576        0.09611
H          4.46349       -2.43322       -1.41386
16 16 16 16 16 16 16 16 16 16 16 16 16 16 16 16 16 16 16 16 16 16 16 16 16 16 16 16 16 16 16 16 16 16 16 16 16 16 16 16 16 16 16
C=C(C(C)C(=O)[O-])C(=O)[O-]
InChI=1S/C6H8O4/c1-3(5(7)8)4(2)6(9)10/h4H,1H2,2H3,(H,7,8)(H,9,10)/p-2/t4-/m1/s1
