18
metacyc 2K-4CH3-PENTANOATE  -73.27008248 -73.27008248 -73.27008248 -73.27008248 -73.27008248 -73.27008248 -73.27008248 -73.27008248 -73.27008248 -73.27008248 -73.27008248 -73.27008248 -73.27008248 -73.27008248 -73.27008248
C          0.88671        0.01859        0.07789
C          2.41262        0.11764        0.15738
C          2.81171        0.87048        1.42848
C          3.06977       -1.27114        0.14353
C          2.86558       -2.01260       -1.16108
C          2.87703       -3.54889       -1.14124
O          2.67144       -4.16752       -2.23151
O          3.09429       -4.07596       -0.00087
O          2.73762       -1.44895       -2.24947
H          0.43392        1.01580        0.08747
H          0.48108       -0.54434        0.92561
H          0.56486       -0.47928       -0.84199
H          2.76569        0.69522       -0.70619
H          2.42752        0.36899        2.32376
H          2.41307        1.89053        1.41629
H          3.90082        0.93787        1.51946
H          2.67525       -1.86407        0.97495
H          4.15350       -1.17687        0.28181
18 18 18 18 18 18 18 18 18 18 18 18 18 18 18 18 18 18 18 18 18 18 18 18 18 18 18 18 18 18 18 18 18 18 18 18 18 18 18 18 18 18 18 18 18 18 18 18 18
CC(C)CC(C([O-])=O)=O
InChI=1S/C6H10O3/c1-4(2)3-5(7)6(8)9/h4H,3H2,1-2H3,(H,8,9)/p-1
