17
metacyc 2K-ADIPATE  -530.95595968 -530.95595968 -530.95595968 -530.95595968 -530.95595968 -530.95595968 -530.95595968 -530.95595968 -530.95595968 -530.95595968 -530.95595968 -530.95595968 -530.95595968 -530.95595968 -530.95595968
C          0.88620        0.00294        0.06259
C          0.35698       -1.40244       -0.21631
C         -1.15375       -1.44595       -0.23706
O         -1.80866       -1.25377       -1.26626
C         -1.92697       -1.77726        1.05273
O         -1.21996       -2.05772        2.07412
O         -3.20108       -1.78689        1.00207
C          2.41458        0.02942        0.04949
C          3.08982        1.38450        0.28784
O          2.33951        2.38469        0.44579
O          4.35785        1.33830        0.27923
H          0.51422        0.35474        1.03233
H          0.49566        0.69900       -0.68983
H          0.73959       -2.12343        0.51293
H          0.70510       -1.74842       -1.19802
H          2.77128       -0.33879       -0.92104
H          2.79154       -0.66317        0.81284
17 17 17 17 17 17 17 17 17 17 17 17 17 17 17 17 17 17 17 17 17 17 17 17 17 17 17 17 17 17 17 17 17 17 17 17 17 17 17 17 17 17 17 17 17 17
C(CC(=O)C(=O)[O-])CC(=O)[O-]
InChI=1S/C6H8O5/c7-4(6(10)11)2-1-3-5(8)9/h1-3H2,(H,8,9)(H,10,11)/p-2
