23
metacyc 3-34-DIHYDROXYPHENYLLACTATE  -305.984145744 -305.984145744 -305.984145744 -305.984145744 -305.984145744 -305.984145744 -305.984145744 -305.984145744 -305.984145744 -305.984145744 -305.984145744 -305.984145744 -305.984145744 -305.984145744 -305.984145744
C         -0.22520       -2.66209        2.67780
C         -1.38785       -2.09405        1.80101
C         -0.76491       -1.60795        0.49729
C         -1.72990       -0.96731       -0.48338
C         -2.47403       -1.77238       -1.36081
C         -3.26882       -1.20227       -2.36021
C         -3.31597        0.18075       -2.47487
C         -2.61523        0.98867       -1.58141
C         -1.83460        0.42805       -0.57790
O         -2.66673        2.34780       -1.71792
O         -4.02913        0.79580       -3.47124
O         -2.34154       -3.16151        1.55280
O          0.72243       -1.87676        2.95323
O         -0.40345       -3.87685        3.01525
H         -1.90406       -1.29537        2.34401
H         -0.28203       -2.44925       -0.01786
H          0.03877       -0.88798        0.69939
H         -2.41753       -2.85673       -1.26639
H         -3.81779       -1.85139       -3.03260
H         -1.28656        1.07153        0.10429
H         -3.22755        2.48227       -2.50686
H         -4.38333        0.09245       -4.04168
H         -1.95589       -3.89798        2.09225
23 23 23 23 23 23 23 23 23 23 23 23 23 23 23 23 23 23 23 23 23 23 23 23 23 23 23 23 23 23 23 23 23 23 23 23 23 23 23 23 23 23 23 23 23 23 23 23 23 23 23 23 23 23 23 23 23 23 23 23 23 23 23 23
C(C(CC1(=CC=C(C(=C1)O)O))O)([O-])=O
InChI=1S/C9H10O5/c10-6-2-1-5(3-7(6)11)4-8(12)9(13)14/h1-3,8,10-12H,4H2,(H,13,14)/p-1
