16
metacyc 3-4-DIHYDROXYBENZOATE  -338.7636268 -338.7636268 -338.7636268 -338.7636268 -338.7636268 -338.7636268 -338.7636268 -338.7636268 -338.7636268 -338.7636268 -338.7636268 -338.7636268 -338.7636268 -338.7636268 -338.7636268
C          1.01434       -0.02604        0.17371
C          0.22971        0.68021        1.26147
C         -0.70432       -0.02901        2.03733
C         -1.42344        0.62569        3.03027
C         -1.22787        1.98408        3.26588
C         -0.31172        2.70678        2.51853
C          0.41515        2.05348        1.51808
O         -1.94841        2.61100        4.24455
O         -2.34072       -0.03714        3.80242
O          1.84314        0.67017       -0.49130
O          0.77990       -1.26567        0.01124
H         -0.84479       -1.08853        1.83812
H         -0.15956        3.76389        2.70391
H          1.13824        2.60851        0.92176
H         -2.50922        1.89522        4.60345
H         -2.32937       -0.96189        3.49651
16 16 16 16 16 16 16 16 16 16 16 16 16 16 16 16 16 16 16 16 16 16 16 16 16 16 16 16 16 16 16 16 16 16 16 16 16 16 16 16 16 16 16
C(C1(C=C(C(=CC=1)O)O))(=O)[O-]
InChI=1S/C7H6O4/c8-5-2-1-4(7(10)11)3-6(5)9/h1-3,8-9H,(H,10,11)/p-1
