35
metacyc 3-B-D-GALACTOSYL-SN-GLYCEROL  -375.63880872 -375.63880872 -375.63880872 -375.63880872 -375.63880872 -375.63880872 -375.63880872 -375.63880872 -375.63880872 -375.63880872 -375.63880872 -375.63880872 -375.63880872 -375.63880872 -375.63880872
C          1.03079        0.30124       -0.15927
O          0.53974       -0.61136       -1.14779
C         -0.88785       -0.63510       -1.19646
O         -1.40995        0.63794       -1.62800
C         -1.00606        0.97181       -2.97431
C         -1.45393        2.40567       -3.25658
O         -0.85167        3.29101       -2.31702
C         -1.59735       -0.05369       -3.95063
O         -3.03434       -0.14614       -3.82985
C         -1.02496       -1.43567       -3.59227
O         -1.56901       -2.42304       -4.47526
C         -1.35234       -1.78661       -2.12738
O         -2.76403       -2.01940       -1.96715
C          2.56296        0.31673       -0.18966
O          3.06369       -0.96329        0.21266
C          3.10555        0.67401       -1.58246
O          4.53231        0.69988       -1.60425
H          0.67893       -0.02651        0.82581
H          0.65396        1.31098       -0.35976
H         -1.28841       -0.81749       -0.19039
H          0.08989        0.95984       -3.02158
H         -2.53957        2.53234       -3.15835
H         -1.15598        2.71971       -4.26146
H         -1.13351        2.97389       -1.43667
H         -1.36796        0.19870       -4.99136
H         -3.39945        0.73528       -3.64055
H          0.06109       -1.43521       -3.73856
H         -2.53407       -2.41340       -4.31883
H         -0.84975       -2.71943       -1.85685
H         -3.22397       -1.29475       -2.44052
H          2.93497        1.03583        0.54774
H          2.85546       -1.58540       -0.50947
H          2.74592        1.65764       -1.89731
H          2.79718       -0.06473       -2.32982
H          4.84463        0.96253       -0.72094
35 35 35 35 35 35 35 35 35 35 35 35 35 35 35 35 35 35 35 35 35 35 35 35 35 35 35 35 35 35 35 35 35 35 35 35 35 35 35 35 35 35 35 35 35 35 35 35 35 35 35 35 35 35 35 35 35 35 35 35 35 35 35 35 35 35 35 35 35 35 35 35 35 35 35 35 35 35 35 35 35 35 35 35 35 35 35 35 35 35 35 35 35 35 35 35 35 35 35 35
C(OC1(OC(CO)C(O)C(O)C(O)1))C(O)CO
InChI=1S/C9H18O8/c10-1-4(12)3-16-9-8(15)7(14)6(13)5(2-11)17-9/h4-15H,1-3H2/t4-,5-,6+,7+,8-,9-/m1/s1
