22
metacyc 3-DEHYDRO-ALPHA-GLUCOSE  -456.092835936 -456.092835936 -456.092835936 -456.092835936 -456.092835936 -456.092835936 -456.092835936 -456.092835936 -456.092835936 -456.092835936 -456.092835936 -456.092835936 -456.092835936 -456.092835936 -456.092835936
C          1.08889        0.16114        0.05326
O          0.71375        1.47864        0.42879
C          2.61601        0.05096       -0.07069
O          3.06121       -1.28011       -0.40086
C          2.69085       -1.72135       -1.71288
C          3.23115       -0.79507       -2.81974
C          2.79861        0.61138       -2.43262
C          3.24188        1.05516       -1.04969
O          4.67333        0.98740       -0.98955
O          2.04393        1.29129       -3.13004
O          4.64557       -0.95961       -2.94743
O          3.20886       -3.03333       -1.89017
H          0.56340       -0.10422       -0.86831
H          0.73428       -0.53290        0.82428
H          0.35772        1.93227       -0.35726
H          3.03730        0.26055        0.92052
H          1.60099       -1.79852       -1.76600
H          2.79453       -1.06864       -3.78514
H          2.93290        2.08745       -0.85930
H          4.92135        0.54142       -0.15630
H          5.06226       -0.47683       -2.20279
H          4.09829       -2.91343       -2.27460
22 22 22 22 22 22 22 22 22 22 22 22 22 22 22 22 22 22 22 22 22 22 22 22 22 22 22 22 22 22 22 22 22 22 22 22 22 22 22 22 22 22 22 22 22 22 22 22 22 22 22 22 22 22 22 22 22 22 22 22 22
C(O)C1(OC(C(C(C1O)=O)O)O)
InChI=1S/C6H10O6/c7-1-2-3(8)4(9)5(10)6(11)12-2/h2-3,5-8,10-11H,1H2/t2-,3-,5-,6?/m1/s1
