18
metacyc 3-HYDROXYPHENYLACETATE  -74.367328112 -74.367328112 -74.367328112 -74.367328112 -74.367328112 -74.367328112 -74.367328112 -74.367328112 -74.367328112 -74.367328112 -74.367328112 -74.367328112 -74.367328112 -74.367328112 -74.367328112
C          0.84715       -0.01325       -0.05641
O          0.18323       -0.99555        0.38477
O          0.43422        1.02473       -0.65460
C          2.36600       -0.12258        0.09056
C          2.89572        0.51108        1.35463
C          2.68676        1.87327        1.61266
C          3.20673        2.47056        2.76261
C          3.95195        1.71411        3.66641
C          4.16735        0.36267        3.41002
O          4.90025       -0.40876        4.26673
C          3.64691       -0.24079        2.26888
H          2.85393        0.35058       -0.77110
H          2.64339       -1.18361        0.04986
H          2.10088        2.46816        0.91129
H          3.02235        3.52439        2.94738
H          4.34988        2.19113        4.55436
H          5.14004        0.14142        5.02783
H          3.81951       -1.29879        2.09315
18 18 18 18 18 18 18 18 18 18 18 18 18 18 18 18 18 18 18 18 18 18 18 18 18 18 18 18 18 18 18 18 18 18 18 18 18 18 18 18 18 18 18 18 18 18 18 18 18
C(=O)([O-])CC1(C=CC=C(O)C=1)
InChI=1S/C8H8O3/c9-7-3-1-2-6(4-7)5-8(10)11/h1-4,9H,5H2,(H,10,11)/p-1
