21
metacyc 3-HYDROXY-ETCETERA-CARBOXYLATE  -221.221033664 -221.221033664 -221.221033664 -221.221033664 -221.221033664 -221.221033664 -221.221033664 -221.221033664 -221.221033664 -221.221033664 -221.221033664 -221.221033664 -221.221033664 -221.221033664 -221.221033664
C          1.02985        0.00750        0.02252
C          2.52904       -0.02902        0.02428
N          3.16707        1.16132        0.06966
C          4.52573        1.11984        0.07164
C          5.29756       -0.04350        0.06450
C          4.61400       -1.28302        0.03970
C          5.40043       -2.57490        0.06759
O          4.53234       -3.72337        0.10997
C          3.20780       -1.25019       -0.01013
O          2.45724       -2.39549       -0.10516
C          6.79998        0.11061        0.07926
O          7.26499        1.25120       -0.23055
O          7.49621       -0.90054        0.40043
H          0.66534        1.03944        0.03442
H          0.63754       -0.49876        0.91085
H          0.63591       -0.48018       -0.87469
H          5.00370        2.09713        0.08753
H          6.02418       -2.62929        0.96467
H          6.01256       -2.66996       -0.83474
H          4.71097       -4.12733        0.97941
H          3.10597       -3.12487       -0.22370
21 21 21 21 21 21 21 21 21 21 21 21 21 21 21 21 21 21 21 21 21 21 21 21 21 21 21 21 21 21 21 21 21 21 21 21 21 21 21 21 21 21 21 21 21 21 21 21 21 21 21 21 21 21 21 21 21 21
CC1(=NC=C(C(CO)=C(O)1)C([O-])=O)
InChI=1S/C8H9NO4/c1-4-7(11)6(3-10)5(2-9-4)8(12)13/h2,10-11H,3H2,1H3,(H,12,13)/p-1
