15
metacyc 3-HYDROXY-CISCIS-MUCONATE  -509.124826736 -509.124826736 -509.124826736 -509.124826736 -509.124826736 -509.124826736 -509.124826736 -509.124826736 -509.124826736 -509.124826736 -509.124826736 -509.124826736 -509.124826736 -509.124826736 -509.124826736
C          1.02532        0.03821       -0.01282
C          0.16719       -0.48724       -0.90403
C         -1.35241       -0.40931       -0.76602
O         -1.80752        0.14344        0.27282
O         -1.97923       -0.94209       -1.72916
C          2.47973       -0.01739       -0.09993
O          2.99637       -1.04809       -0.85075
C          3.25872        0.85395        0.55263
C          4.78021        0.94350        0.61922
O          5.45016       -0.12141        0.51992
O          5.20667        2.11683        0.86175
H          0.61711        0.57074        0.84613
H          0.51853       -0.97248       -1.80910
H          2.30482       -1.72559       -0.89268
H          2.78216        1.66015        1.10795
15 15 15 15 15 15 15 15 15 15 15 15 15 15 15 15 15 15 15 15 15 15 15 15 15 15 15 15 15 15 15 15 15 15 15 15 15 15 15 15
C(=CC(=O)[O-])C(O)=CC(=O)[O-]
InChI=1S/C6H6O5/c7-4(3-6(10)11)1-2-5(8)9/h1-3,7H,(H,8,9)(H,10,11)/p-2/b2-1-,4-3+
