22
metacyc 3-KETO-L-GULONATE  -705.054208 -705.054208 -705.054208 -705.054208 -705.054208 -705.054208 -705.054208 -705.054208 -705.054208 -705.054208 -705.054208 -705.054208 -705.054208 -705.054208 -705.054208
C          2.67430       -1.49998       -0.01242
O          2.13719       -2.22875       -1.12336
C          2.50047        0.01828       -0.20190
O          1.08032        0.30562       -0.21232
C          3.13953        0.85472        0.91491
O          2.51257        0.47028        2.16872
C          4.65179        0.67584        1.08846
O          5.05657       -0.28146        1.76227
C          5.55865        1.77944        0.56249
O          6.82801        1.82154        1.24960
C          5.78997        1.51754       -0.93516
O          4.76231        1.56594       -1.66112
O          6.99693        1.28262       -1.24156
H          3.72675       -1.77873        0.07634
H          2.13778       -1.84852        0.87484
H          2.39960       -1.74105       -1.92534
H          2.86560        0.30102       -1.18862
H          0.80695        0.26619        0.72400
H          2.90225        1.91500        0.78762
H          3.14028       -0.16285        2.58165
H          5.08332        2.75270        0.71507
H          7.44506        1.44973        0.57196
22 22 22 22 22 22 22 22 22 22 22 22 22 22 22 22 22 22 22 22 22 22 22 22 22 22 22 22 22 22 22 22 22 22 22 22 22 22 22 22 22 22 22 22 22 22 22 22 22 22 22 22 22 22 22 22 22 22 22 22 22
C(O)C(O)C(O)C(=O)C(O)C(=O)[O-]
InChI=1S/C6H10O7/c7-1-2(8)3(9)4(10)5(11)6(12)13/h2-3,5,7-9,11H,1H2,(H,12,13)/p-1/t2-,3+,5-/m0/s1
