12
metacyc 3-KETOBUTYRATE  -280.14587048 -280.14587048 -280.14587048 -280.14587048 -280.14587048 -280.14587048 -280.14587048 -280.14587048 -280.14587048 -280.14587048 -280.14587048 -280.14587048 -280.14587048 -280.14587048 -280.14587048
C          1.01733        0.17295        0.06222
C          2.51256       -0.01362        0.16036
O          2.97465       -0.97606        0.78910
C          3.39432        0.85610       -0.68707
C          3.09484        2.32513       -0.49786
O          2.80537        2.69471        0.67113
O          3.16971        3.01573       -1.55569
H          0.51939       -0.54245        0.72279
H          0.69830       -0.01754       -0.96500
H          0.72087        1.17740        0.36869
H          3.25006        0.55873       -1.73223
H          4.44284        0.67700       -0.42036
12 12 12 12 12 12 12 12 12 12 12 12 12 12 12 12 12 12 12 12 12 12 12 12 12 12 12 12 12 12 12
CC(=O)CC([O-])=O
InChI=1S/C4H6O3/c1-3(5)2-4(6)7/h2H2,1H3,(H,6,7)/p-1
