10
metacyc 3-NITROACRYLATE  -436.89250596 -436.89250596 -436.89250596 -436.89250596 -436.89250596 -436.89250596 -436.89250596 -436.89250596 -436.89250596 -436.89250596 -436.89250596 -436.89250596 -436.89250596 -436.89250596 -436.89250596
C          0.95372        0.12002        0.06507
C          0.29288        1.24863       -0.20966
C         -1.21671        1.19603       -0.19686
O         -1.72889        0.07620        0.07573
O         -1.76955        2.29668       -0.46479
N          2.39426        0.09418        0.07136
O          2.91706       -0.99828        0.33729
O          3.02609        1.13056       -0.18092
H          0.53024       -0.84526        0.30004
H          0.77636        2.19061       -0.43897
10 10 10 10 10 10 10 10 10 10 10 10 10 10 10 10 10 10 10 10 10 10 10 10 10
C(=CC(=O)[O-])[N+](=O)[O-]
InChI=1S/C3H3NO4/c5-3(6)1-2-4(7)8/h1-2H,(H,5,6)/p-1/b2-1+
