15
metacyc 3-OXOADIPATE-ENOL-LACTONE  -375.70836772 -375.70836772 -375.70836772 -375.70836772 -375.70836772 -375.70836772 -375.70836772 -375.70836772 -375.70836772 -375.70836772 -375.70836772 -375.70836772 -375.70836772 -375.70836772 -375.70836772
C          1.04999        0.15734       -0.46251
O          0.98335        0.85837        0.58911
C          0.11532       -1.04961       -0.52128
C         -1.34875       -0.73911       -0.51197
C         -1.97023        0.43329       -0.42996
C         -3.42566        0.21502       -0.41624
C         -3.46338       -1.28864       -0.54079
O         -4.49691       -1.94757       -0.59240
O         -2.20718       -1.84152       -0.58625
O          1.80636        0.30242       -1.46599
H          0.34988       -1.69091        0.33563
H          0.34168       -1.63236       -1.42305
H         -1.48142        1.39405       -0.34764
H         -3.91519        0.68244       -1.27280
H         -3.87083        0.52801        0.53066
15 15 15 15 15 15 15 15 15 15 15 15 15 15 15 15 15 15 15 15 15 15 15 15 15 15 15 15 15 15 15 15 15 15 15 15 15 15 15 15
C(=O)(CC1(=CCC(=O)O1))[O-]
InChI=1S/C6H6O4/c7-5(8)3-4-1-2-6(9)10-4/h1H,2-3H2,(H,7,8)/p-1
