25
metacyc 3-OXO-6-ACETAMIDOHEXANOATE  -75.013329344 -75.013329344 -75.013329344 -75.013329344 -75.013329344 -75.013329344 -75.013329344 -75.013329344 -75.013329344 -75.013329344 -75.013329344 -75.013329344 -75.013329344 -75.013329344 -75.013329344
C          1.17190        0.06496        0.03122
C          2.66910       -0.02561        0.15546
O          3.21881       -0.77636        0.95217
N          3.33290        0.81994       -0.70247
C          4.78240        0.85167       -0.77932
C          5.24804        1.87424       -1.80693
C          6.77117        1.94840       -1.90930
C          7.20756        3.00240       -2.92237
O          6.38020        3.74385       -3.46918
C          8.67986        3.25147       -3.09080
C          9.43338        1.99541       -3.46191
O          8.81229        1.15126       -4.16249
O         10.61400        1.94409       -3.01299
H          0.70379       -0.64034        0.72356
H          0.86558       -0.18733       -0.98783
H          0.83944        1.07676        0.27924
H          2.80526        1.35688       -1.37923
H          5.13067       -0.15433       -1.03800
H          5.16559        1.09439        0.21824
H          4.84581        2.86122       -1.54343
H          4.82548        1.62575       -2.78944
H          7.16653        0.97096       -2.19851
H          7.19566        2.22395       -0.93741
H          9.05916        3.67176       -2.15287
H          8.83077        3.99285       -3.88266
25 25 25 25 25 25 25 25 25 25 25 25 25 25 25 25 25 25 25 25 25 25 25 25 25 25 25 25 25 25 25 25 25 25 25 25 25 25 25 25 25 25 25 25 25 25 25 25 25 25 25 25 25 25 25 25 25 25 25 25 25 25 25 25 25 25 25 25 25 25
CC(=O)NCCCC(=O)CC(=O)[O-]
InChI=1S/C8H13NO4/c1-6(10)9-4-2-3-7(11)5-8(12)13/h2-5H2,1H3,(H,9,10)(H,12,13)/p-1
