16
metacyc 3-UREIDO-PROPIONATE  -220.640001584 -220.640001584 -220.640001584 -220.640001584 -220.640001584 -220.640001584 -220.640001584 -220.640001584 -220.640001584 -220.640001584 -220.640001584 -220.640001584 -220.640001584 -220.640001584 -220.640001584
C          0.83766        0.02662       -0.03875
N          0.23804        1.33722       -0.16895
C         -0.50133        1.75543       -1.22398
O         -0.83429        1.08671       -2.19177
N         -0.92194        3.03947       -1.08631
C          2.35589        0.07871       -0.05866
C          2.94152        0.86139        1.11474
O          2.28778        1.88557        1.47738
O          4.03017        0.40714        1.56887
H          0.47513       -0.62295       -0.84194
H          0.48423       -0.38106        0.91429
H          0.64971        2.01642        0.47407
H         -0.37546        3.64879       -0.49636
H         -1.35992        3.43807       -1.90278
H          2.71595        0.53930       -0.98559
H          2.74203       -0.94744       -0.02656
16 16 16 16 16 16 16 16 16 16 16 16 16 16 16 16 16 16 16 16 16 16 16 16 16 16 16 16 16 16 16 16 16 16 16 16 16 16 16 16 16 16 16
C(NC(=O)N)CC([O-])=O
InChI=1S/C4H8N2O3/c5-4(9)6-2-1-3(7)8/h1-2H2,(H,7,8)(H3,5,6,9)/p-1
