19
metacyc 3-UREIDO-ISOBUTYRATE  -135.486145744 -135.486145744 -135.486145744 -135.486145744 -135.486145744 -135.486145744 -135.486145744 -135.486145744 -135.486145744 -135.486145744 -135.486145744 -135.486145744 -135.486145744 -135.486145744 -135.486145744
C          0.93934       -0.03103        0.11177
C          2.46374       -0.06264        0.07241
C          2.98912       -1.32148       -0.60928
N          2.56711       -2.53977        0.08033
C          2.43068       -3.78559       -0.41931
N          2.58985       -3.93095       -1.75047
O          2.15394       -4.74649        0.29031
C          3.08633        1.09123       -0.73303
O          2.28103        1.87732       -1.30401
O          4.35073        1.12065       -0.72528
H          0.54216       -0.84533        0.72653
H          0.51049       -0.12832       -0.89197
H          0.57931        0.91062        0.53955
H          2.84079       -0.00296        1.10133
H          4.08507       -1.35445       -0.61444
H          2.65756       -1.35849       -1.65290
H          2.51612       -2.49987        1.08896
H          3.20914       -3.29345       -2.22711
H          2.58879       -4.88574       -2.07496
19 19 19 19 19 19 19 19 19 19 19 19 19 19 19 19 19 19 19 19 19 19 19 19 19 19 19 19 19 19 19 19 19 19 19 19 19 19 19 19 19 19 19 19 19 19 19 19 19 19 19 19
CC(CNC(N)=O)C(=O)[O-]
InChI=1S/C5H10N2O3/c1-3(4(8)9)2-7-5(6)10/h3H,2H2,1H3,(H,8,9)(H3,6,7,10)/p-1/t3-/m1/s1
