18
metacyc 4-CARBOXYBENZYL-ALCOHOL  -80.852553216 -80.852553216 -80.852553216 -80.852553216 -80.852553216 -80.852553216 -80.852553216 -80.852553216 -80.852553216 -80.852553216 -80.852553216 -80.852553216 -80.852553216 -80.852553216 -80.852553216
C          1.07750       -0.00307        0.19019
C          0.55132        1.40612        0.24716
C         -0.82707        1.63036        0.37066
C         -1.33505        2.93111        0.44044
C         -0.48083        4.04353        0.39502
C          0.89924        3.81335        0.30031
C          1.41081        2.51300        0.23870
C         -1.03871        5.45454        0.45189
O         -2.29964        5.57402        0.55531
O         -0.20245        6.41057        0.38800
O          2.20604       -0.12624       -0.67147
H          0.31013       -0.67820       -0.20204
H          1.35783       -0.34253        1.19080
H         -1.52423        0.79797        0.41376
H         -2.40772        3.09311        0.53285
H          1.57608        4.66686        0.27895
H          2.48842        2.37711        0.18393
H          2.07267        0.51832       -1.38963
18 18 18 18 18 18 18 18 18 18 18 18 18 18 18 18 18 18 18 18 18 18 18 18 18 18 18 18 18 18 18 18 18 18 18 18 18 18 18 18 18 18 18 18 18 18 18 18 18
C(C1(=CC=C(C=C1)C([O-])=O))O
InChI=1S/C8H8O3/c9-5-6-1-3-7(4-2-6)8(10)11/h1-4,9H,5H2,(H,10,11)/p-1
