13
metacyc 4-CARBOXYMETHYLENEBUT-2-EN-4-OLIDE  -463.6236008 -463.6236008 -463.6236008 -463.6236008 -463.6236008 -463.6236008 -463.6236008 -463.6236008 -463.6236008 -463.6236008 -463.6236008 -463.6236008 -463.6236008 -463.6236008 -463.6236008
C          0.95185       -0.66389        0.05207
C          0.99142        0.65825       -0.04894
C         -0.39578        1.10345        0.09263
O         -0.71955        2.28193        0.05526
O         -1.23014        0.03748        0.27332
C         -0.39906       -1.07218        0.24935
C         -0.79102       -2.33904        0.40573
C         -2.21411       -2.83236        0.62448
O         -3.15039       -2.07693        0.25870
O         -2.26273       -3.99577        1.12239
H          1.79341       -1.33542       -0.00293
H          1.82710        1.31316       -0.19829
H         -0.05532       -3.13951        0.40394
13 13 13 13 13 13 13 13 13 13 13 13 13 13 13 13 13 13 13 13 13 13 13 13 13 13 13 13 13 13 13 13 13 13
C1(=CC(=O)OC(=CC(=O)[O-])1)
InChI=1S/C6H4O4/c7-5(8)3-4-1-2-6(9)10-4/h1-3H,(H,7,8)/p-1/b4-3-
