16
metacyc 4-CARBOXYBENZALDEHYDE  -133.62214864 -133.62214864 -133.62214864 -133.62214864 -133.62214864 -133.62214864 -133.62214864 -133.62214864 -133.62214864 -133.62214864 -133.62214864 -133.62214864 -133.62214864 -133.62214864 -133.62214864
C          0.84267        0.09698        0.01010
C          0.29887        0.95165       -1.06391
C         -0.40399        0.38768       -2.12955
C         -0.89252        1.21233       -3.14584
C         -0.68622        2.60313       -3.11022
C         -1.20157        3.49631       -4.22460
O         -0.97854        4.74280       -4.11167
O         -1.81109        2.93028       -5.18456
C          0.01409        3.14862       -2.02050
C          0.50620        2.33154       -1.00081
O          0.70991       -1.12093        0.02816
H          1.39047        0.61845        0.81285
H         -0.57071       -0.68445       -2.18020
H         -1.43807        0.77994       -3.98420
H          0.17441        4.22580       -1.98364
H          1.04709        2.78682       -0.17737
16 16 16 16 16 16 16 16 16 16 16 16 16 16 16 16 16 16 16 16 16 16 16 16 16 16 16 16 16 16 16 16 16 16 16 16 16 16 16 16 16 16 16
C(C1(C=CC(C(=O)[O-])=CC=1))=O
InChI=1S/C8H6O3/c9-5-6-1-3-7(4-2-6)8(10)11/h1-5H,(H,10,11)/p-1
