20
metacyc 4-FUMARYL-ACETOACETATE  -572.71227968 -572.71227968 -572.71227968 -572.71227968 -572.71227968 -572.71227968 -572.71227968 -572.71227968 -572.71227968 -572.71227968 -572.71227968 -572.71227968 -572.71227968 -572.71227968 -572.71227968
C          3.06006        1.47715       -2.41809
O          3.42442        1.03646       -3.54389
O          2.32511        2.47109       -2.14740
C          3.54260        0.70551       -1.19698
C          4.35000       -0.36395       -1.28041
C          4.77351       -1.10958       -0.05313
O          4.39926       -0.75886        1.06810
C          5.63111       -2.34152       -0.24308
C          7.12004       -2.08116       -0.19847
O          7.57791       -0.93351       -0.16164
C          8.05004       -3.25020       -0.39025
C          7.81229       -4.31302        0.65660
O          8.55384       -4.26174        1.67694
O          6.92951       -5.16559        0.35473
H          3.19766        1.06456       -0.23154
H          4.70244       -0.72367       -2.24103
H          5.38481       -2.81056       -1.20205
H          5.35567       -3.04488        0.54880
H          9.08603       -2.89786       -0.33412
H          7.89639       -3.65673       -1.39598
20 20 20 20 20 20 20 20 20 20 20 20 20 20 20 20 20 20 20 20 20 20 20 20 20 20 20 20 20 20 20 20 20 20 20 20 20 20 20 20 20 20 20 20 20 20 20 20 20 20 20 20 20 20 20
C([O-])(=O)C=CC(=O)CC(=O)CC([O-])=O
InChI=1S/C8H8O6/c9-5(1-2-7(11)12)3-6(10)4-8(13)14/h1-2H,3-4H2,(H,11,12)(H,13,14)/p-2/b2-1+
