15
metacyc 4-HYDROXYMUCONIC-SEMIALDEHYDE  -241.736721192 -241.736721192 -241.736721192 -241.736721192 -241.736721192 -241.736721192 -241.736721192 -241.736721192 -241.736721192 -241.736721192 -241.736721192 -241.736721192 -241.736721192 -241.736721192 -241.736721192
C          1.09986        0.16246        0.08985
C          0.31356       -0.87440        0.41747
C         -1.21202       -0.79056        0.37648
O         -1.70295        0.30629       -0.00472
O         -1.78162       -1.86312        0.72324
C          2.54796        0.15252        0.10183
O          3.15990       -1.06608       -0.11511
C          3.26153        1.27487        0.24945
C          4.73407        1.24497        0.23924
H          5.21017        0.26327        0.08519
O          5.39691        2.26593        0.39577
H          0.61918        1.10238       -0.18773
H          0.70561       -1.82410        0.76600
H          2.45764       -1.69119       -0.37478
H          2.80210        2.24316        0.40168
15 15 15 15 15 15 15 15 15 15 15 15 15 15 15 15 15 15 15 15 15 15 15 15 15 15 15 15 15 15 15 15 15 15 15 15 15 15 15 15
C(=CC(=O)[O-])C(O)=C[CH]=O
InChI=1S/C6H6O4/c7-4-3-5(8)1-2-6(9)10/h1-4,8H,(H,9,10)/p-1/b2-1+,5-3-
