15
metacyc 4-hydroxybenzoate  -173.579340272 -173.579340272 -173.579340272 -173.579340272 -173.579340272 -173.579340272 -173.579340272 -173.579340272 -173.579340272 -173.579340272 -173.579340272 -173.579340272 -173.579340272 -173.579340272 -173.579340272
C          1.02398       -0.00941       -0.02158
C          0.36320       -0.10588       -1.38447
C          0.12940       -1.35590       -1.98384
C         -0.46360       -1.45076       -3.24489
C         -0.82915       -0.28840       -3.91777
C         -0.62269        0.95984       -3.34452
C         -0.02730        1.04943       -2.08361
O         -1.39362       -0.34065       -5.16009
O          1.19770        1.15488        0.45815
O          1.35582       -1.10236        0.53843
H          0.42212       -2.25852       -1.44889
H         -0.62678       -2.43262       -3.67373
H         -0.91332        1.86190       -3.87160
H          0.14343        2.02495       -1.63036
H         -1.38514       -1.26914       -5.44124
15 15 15 15 15 15 15 15 15 15 15 15 15 15 15 15 15 15 15 15 15 15 15 15 15 15 15 15 15 15 15 15 15 15 15 15 15 15 15 15
C(C1(C=CC(=CC=1)O))(=O)[O-]
InChI=1S/C7H6O3/c8-6-3-1-5(2-4-6)7(9)10/h1-4,8H,(H,9,10)/p-1
