18
metacyc 4-HYDROXYPHENYLACETATE  -74.367328112 -74.367328112 -74.367328112 -74.367328112 -74.367328112 -74.367328112 -74.367328112 -74.367328112 -74.367328112 -74.367328112 -74.367328112 -74.367328112 -74.367328112 -74.367328112 -74.367328112
C         -0.64451        1.23573       -0.01005
C          0.75290        1.24961        0.02260
C          1.45204        0.04729        0.01668
O          2.81696        0.02141        0.00804
C          0.77700       -1.16334       -0.00274
C         -0.62113       -1.17270       -0.03089
C         -1.35329        0.02707       -0.03687
C         -2.85648       -0.03024       -0.19944
C         -3.68687        1.03570        0.51883
O         -3.62458        2.20578        0.03964
O         -4.40575        0.60911        1.46979
H         -1.18143        2.18335       -0.02837
H          1.26444        2.20575        0.04225
H          3.12265        0.94047       -0.05728
H          1.32644       -2.09838       -0.00844
H         -1.14601       -2.12646       -0.07320
H         -3.21553       -1.01108        0.13910
H         -3.08371        0.02729       -1.27128
18 18 18 18 18 18 18 18 18 18 18 18 18 18 18 18 18 18 18 18 18 18 18 18 18 18 18 18 18 18 18 18 18 18 18 18 18 18 18 18 18 18 18 18 18 18 18 18 18
C1(C=C(O)C=CC=1CC(=O)[O-])
InChI=1S/C8H8O3/c9-7-3-1-6(2-4-7)5-8(10)11/h1-4,9H,5H2,(H,10,11)/p-1
