14
metacyc 4-IMIDAZOLEACETATE  -21.86750864 -21.86750864 -21.86750864 -21.86750864 -21.86750864 -21.86750864 -21.86750864 -21.86750864 -21.86750864 -21.86750864 -21.86750864 -21.86750864 -21.86750864 -21.86750864 -21.86750864
C         -1.12528        0.07084        0.00941
N         -0.31077        1.16719        0.02392
C          0.97728        0.72123        0.03119
C          0.90424       -0.65562        0.00361
C          1.96930       -1.69109       -0.02537
C          3.42635       -1.23398        0.01422
O          3.74001       -0.20816       -0.65593
O          4.19555       -1.98216        0.69146
N         -0.42978       -1.04272       -0.00156
H         -2.20112        0.14401        0.00060
H         -0.60636        2.12858        0.02259
H          1.82698        1.38991        0.03173
H          1.84859       -2.29407       -0.93551
H          1.79840       -2.36726        0.82247
14 14 14 14 14 14 14 14 14 14 14 14 14 14 14 14 14 14 14 14 14 14 14 14 14 14 14 14 14 14 14 14 14 14 14 14 14
C1(NC=C(CC(=O)[O-])N=1)
InChI=1S/C5H6N2O2/c8-5(9)1-4-2-6-3-7-4/h2-3H,1H2,(H,6,7)(H,8,9)/p-1
