20
metacyc 4-OH-4-ACETYL-2-OXOGLUTARATE  -1078.7730628 -1078.7730628 -1078.7730628 -1078.7730628 -1078.7730628 -1078.7730628 -1078.7730628 -1078.7730628 -1078.7730628 -1078.7730628 -1078.7730628 -1078.7730628 -1078.7730628 -1078.7730628 -1078.7730628
C          1.20067        1.07508       -0.56156
C          0.28574        1.16566        0.68136
C         -1.22639        0.94382        0.64642
C         -1.90178       -0.20038       -0.13710
O         -1.68592        0.04602       -1.56734
C         -1.37982       -1.61284        0.17381
C         -1.54677       -2.27085        1.54761
O         -1.24221       -3.50959        1.58299
O         -1.87561       -1.54151        2.52134
C         -3.49158       -0.13322        0.09655
O         -3.95699        0.93692        0.61239
O         -4.17810       -1.09755       -0.37909
O          0.83384        1.64034        1.68841
O          0.80046        0.36930       -1.54635
O          2.30300        1.72789       -0.54702
H         -1.62156        1.89967        0.27580
H         -1.52868        0.87018        1.69931
H         -0.70684        0.00317       -1.70218
H         -0.30553       -1.65202       -0.04852
H         -1.82955       -2.30733       -0.55137
20 20 20 20 20 20 20 20 20 20 20 20 20 20 20 20 20 20 20 20 20 20 20 20 20 20 20 20 20 20 20 20 20 20 20 20 20 20 20 20 20 20 20 20 20 20 20 20 20 20 20 20 20 20 20
C(C(CC(O)(CC(=O)[O-])C(=O)[O-])=O)(=O)[O-]
InChI=1S/C7H8O8/c8-3(5(11)12)1-7(15,6(13)14)2-4(9)10/h15H,1-2H2,(H,9,10)(H,11,12)(H,13,14)/p-3
