16
metacyc 4-OXOGLUTARAMATE  -356.24816532 -356.24816532 -356.24816532 -356.24816532 -356.24816532 -356.24816532 -356.24816532 -356.24816532 -356.24816532 -356.24816532 -356.24816532 -356.24816532 -356.24816532 -356.24816532 -356.24816532
C          1.13063       -0.01297       -0.04228
C          0.55142       -0.49593        1.27994
C         -0.97436       -0.50598        1.30750
O         -1.55620       -0.12347        0.25617
O         -1.47122       -0.90325        2.39928
C          2.63780       -0.01479       -0.03712
C          3.32340        0.45685       -1.32804
N          4.69226        0.43396       -1.26569
O          2.71081        0.81819       -2.31719
O          3.36027       -0.35613        0.89730
H          0.79573        1.01007       -0.24830
H          0.79582       -0.66238       -0.85920
H          0.90437        0.14470        2.09771
H          0.90428       -1.51285        1.49224
H          5.13729        0.12116       -0.40941
H          5.23461        0.72538       -2.06338
16 16 16 16 16 16 16 16 16 16 16 16 16 16 16 16 16 16 16 16 16 16 16 16 16 16 16 16 16 16 16 16 16 16 16 16 16 16 16 16 16 16 16
C(CC(=O)[O-])C(C(N)=O)=O
InChI=1S/C5H7NO4/c6-5(10)3(7)1-2-4(8)9/h1-2H2,(H2,6,10)(H,8,9)/p-1
