17
metacyc 4-OXALOMESACONATE  -921.38031312 -921.38031312 -921.38031312 -921.38031312 -921.38031312 -921.38031312 -921.38031312 -921.38031312 -921.38031312 -921.38031312 -921.38031312 -921.38031312 -921.38031312 -921.38031312 -921.38031312
C          1.50517       -1.26254        0.41041
O          0.69121       -1.61862       -0.48632
O          1.41119       -1.46052        1.66507
C          2.82846       -0.61879       -0.02609
C          3.22113        0.03502       -1.14854
C          2.34650        0.31119       -2.35923
C          1.63677        1.66783       -2.41153
C          0.84769        2.00321       -3.70679
O          1.02238        1.23694       -4.71805
O          0.06468        3.01929       -3.70638
O          1.58717        2.51023       -1.51226
C          4.71772        0.45696       -1.28416
O          5.55763       -0.17062       -0.56425
O          4.97717        1.34825       -2.14746
H          3.58197       -0.73802        0.75525
H          1.57287       -0.45635       -2.45506
H          2.96158        0.22250       -3.26373
17 17 17 17 17 17 17 17 17 17 17 17 17 17 17 17 17 17 17 17 17 17 17 17 17 17 17 17 17 17 17 17 17 17 17 17 17 17 17 17 17 17 17 17 17 17
C(=O)([O-])C=C(CC(C([O-])=O)=O)C([O-])=O
InChI=1S/C7H6O7/c8-4(7(13)14)1-3(6(11)12)2-5(9)10/h2H,1H2,(H,9,10)(H,11,12)(H,13,14)/p-3/b3-2+
