19
metacyc 4-OXOCYCLOHEXANECARBOXYLATE  -14.69406156 -14.69406156 -14.69406156 -14.69406156 -14.69406156 -14.69406156 -14.69406156 -14.69406156 -14.69406156 -14.69406156 -14.69406156 -14.69406156 -14.69406156 -14.69406156 -14.69406156
C          0.71145        1.24510       -0.18039
C         -0.75370        1.27787        0.23754
C         -1.44679        0.01821       -0.22500
O         -2.52771        0.05336       -0.81670
C         -0.79693       -1.28681        0.16732
C          0.68411       -1.27455       -0.19947
C          1.42407       -0.02676        0.30162
C          1.65982        0.03410        1.82743
O          1.23735       -0.95292        2.48900
O          2.24911        1.07438        2.23375
H          1.21231        2.14764        0.18780
H          0.77047        1.28445       -1.27622
H         -1.24928        2.14390       -0.21379
H         -0.86218        1.35376        1.32436
H         -1.29917       -2.10745       -0.35580
H         -0.95257       -1.43321        1.24020
H          0.77284       -1.31169       -1.29373
H          1.16148       -2.18527        0.18074
H          2.42940       -0.04109       -0.14200
19 19 19 19 19 19 19 19 19 19 19 19 19 19 19 19 19 19 19 19 19 19 19 19 19 19 19 19 19 19 19 19 19 19 19 19 19 19 19 19 19 19 19 19 19 19 19 19 19 19 19 19
C1(CC(=O)CCC1C(=O)[O-])
InChI=1S/C7H10O3/c8-6-3-1-5(2-4-6)7(9)10/h5H,1-4H2,(H,9,10)/p-1
