15
metacyc 5-AMINO-2-OXOPENTANOATE  -75.26978344 -75.26978344 -75.26978344 -75.26978344 -75.26978344 -75.26978344 -75.26978344 -75.26978344 -75.26978344 -75.26978344 -75.26978344 -75.26978344 -75.26978344 -75.26978344 -75.26978344
C          0.90231       -0.02861        0.03806
C          0.41421        0.58369       -1.26919
N         -1.04348        0.60341       -1.30849
C          2.42880       -0.05263        0.08890
C          2.95049       -0.65507        1.37472
O          2.22997       -1.07880        2.27907
C          4.47342       -0.73820        1.55223
O          5.15168       -0.28075        0.57573
O          4.92945       -1.24098        2.62546
H          0.51413       -1.05004        0.14248
H          0.51441        0.54522        0.88963
H          0.78371        0.00700       -2.12346
H          0.78520        1.60851       -1.37397
H          2.81745        0.96878        0.00812
H          2.81729       -0.64437       -0.74763
15 15 15 15 15 15 15 15 15 15 15 15 15 15 15 15 15 15 15 15 15 15 15 15 15 15 15 15 15 15 15 15 15 15 15 15 15 15 15 15
C(C[N+])CC(=O)C([O-])=O
InChI=1S/C5H9NO3/c6-3-1-2-4(7)5(8)9/h1-3,6H2,(H,8,9)
