15
metacyc 5-AMINO-LEVULINATE  -85.56242344 -85.56242344 -85.56242344 -85.56242344 -85.56242344 -85.56242344 -85.56242344 -85.56242344 -85.56242344 -85.56242344 -85.56242344 -85.56242344 -85.56242344 -85.56242344 -85.56242344
C          1.07885        0.00714       -0.10050
C          0.64610       -1.20359        0.71164
C         -0.16658       -2.27192        0.00929
N         -1.47414       -1.71109       -0.32252
O          0.88518       -1.27797        1.92392
C          2.58703        0.18509       -0.12534
C          3.32129       -0.89524       -0.91533
O          4.55774       -0.69233       -1.06061
O          2.61040       -1.85012       -1.33693
H          0.60372        0.88356        0.35809
H          0.68197       -0.06901       -1.11830
H         -0.30180       -3.11844        0.68956
H          0.33908       -2.63549       -0.88526
H          2.99244        0.20426        0.89129
H          2.81853        1.15260       -0.59156
15 15 15 15 15 15 15 15 15 15 15 15 15 15 15 15 15 15 15 15 15 15 15 15 15 15 15 15 15 15 15 15 15 15 15 15 15 15 15 15
C(C(C[N+])=O)CC([O-])=O
InChI=1S/C5H9NO3/c6-3-4(7)1-2-5(8)9/h1-3,6H2,(H,8,9)
