17
metacyc 5-HYDROXYISOURATE  -470.26281384 -470.26281384 -470.26281384 -470.26281384 -470.26281384 -470.26281384 -470.26281384 -470.26281384 -470.26281384 -470.26281384 -470.26281384 -470.26281384 -470.26281384 -470.26281384 -470.26281384
C          1.28719       -1.15036        0.53885
C         -0.07355       -0.99022       -0.13186
O         -0.05109       -1.63810       -1.38314
N         -1.29801       -1.36796        0.48761
C         -2.26843       -0.40185        0.29565
O         -3.44132       -0.52576        0.59761
N         -1.68217        0.71281       -0.21240
C         -0.34863        0.49392       -0.27451
N          0.52399        1.43628       -0.36744
C          1.84761        1.09714       -0.22847
O          2.74537        1.92815       -0.31988
N          2.18509       -0.18472        0.14690
O          1.59358       -2.09299        1.26266
H         -0.01669       -2.58978       -1.18229
H         -1.55088       -2.29738        0.79067
H         -2.13915        1.60847       -0.26082
H          3.14462       -0.28856        0.44180
17 17 17 17 17 17 17 17 17 17 17 17 17 17 17 17 17 17 17 17 17 17 17 17 17 17 17 17 17 17 17 17 17 17 17 17 17 17 17 17 17 17 17 17 17 17
C2(C1(O)(NC(=O)NC1=NC(=O)N2))(=O)
InChI=1S/C5H4N4O4/c10-2-5(13)1(6-3(11)8-2)7-4(12)9-5/h13H,(H3,6,7,8,9,10,11,12)/t5-/m0/s1
