27
metacyc 5-O-METHYL-MYO-INOSITOL  -257.375902328 -257.375902328 -257.375902328 -257.375902328 -257.375902328 -257.375902328 -257.375902328 -257.375902328 -257.375902328 -257.375902328 -257.375902328 -257.375902328 -257.375902328 -257.375902328 -257.375902328
C          1.81641       -0.92476       -0.96600
O          2.16909        0.13657       -0.08347
C          2.85901        1.21897       -0.72597
C          1.92101        2.17434       -1.49714
O          1.20259        1.48762       -2.52971
C          0.92819        2.89151       -0.56478
O          0.19633        3.84297       -1.35753
C          1.64381        3.61853        0.58387
O          2.36267        4.74186        0.02658
C          2.57612        2.66122        1.34364
O          3.28329        3.37806        2.36363
C          3.58961        1.99998        0.38649
O          4.41666        3.03063       -0.18356
H          1.59341       -1.80662       -0.35836
H          2.63914       -1.17749       -1.64417
H          0.91502       -0.67637       -1.52600
H          3.60480        0.81268       -1.42115
H          2.52455        2.92333       -2.02380
H          0.42543        2.05056       -2.72453
H          0.19693        2.17492       -0.17453
H          0.69777        4.68405       -1.28498
H          0.90832        4.06142        1.26638
H          3.27084        4.43419       -0.18382
H          1.97887        1.89355        1.84838
H          3.84574        4.03036        1.90500
H          4.24376        1.33875        0.96724
H          5.14060        2.57950       -0.66025
27 27 27 27 27 27 27 27 27 27 27 27 27 27 27 27 27 27 27 27 27 27 27 27 27 27 27 27 27 27 27 27 27 27 27 27 27 27 27 27 27 27 27 27 27 27 27 27 27 27 27 27 27 27 27 27 27 27 27 27 27 27 27 27 27 27 27 27 27 27 27 27 27 27 27 27
COC1(C(O)C(O)C(O)C(O)C(O)1)
InChI=1S/C7H14O6/c1-13-7-5(11)3(9)2(8)4(10)6(7)12/h2-12H,1H3/t2-,3+,4-,5-,6+,7+
