15
metacyc 5-OH-2-4-DIOXOPENTANOATE  -521.56262864 -521.56262864 -521.56262864 -521.56262864 -521.56262864 -521.56262864 -521.56262864 -521.56262864 -521.56262864 -521.56262864 -521.56262864 -521.56262864 -521.56262864 -521.56262864 -521.56262864
C          0.17879       -0.22455       -1.14645
C          0.50444        1.23152       -0.79962
C          1.58885        1.94431       -1.55968
C          3.03231        1.73827       -1.22663
C          3.53782        0.62227       -0.30916
O          4.76491        0.60833        0.01048
O          2.66928       -0.24326        0.03028
O          3.89344        2.46795       -1.73496
O         -0.23591        1.86219       -0.03176
O          1.16695       -0.94869       -1.85015
H         -0.72529       -0.22369       -1.76162
H         -0.03970       -0.75664       -0.21395
H          1.40639        3.01890       -1.41017
H          1.44302        1.75245       -2.62810
H          1.89355       -1.03579       -1.17566
15 15 15 15 15 15 15 15 15 15 15 15 15 15 15 15 15 15 15 15 15 15 15 15 15 15 15 15 15 15 15 15 15 15 15 15 15 15 15 15
C(C(CC(C([O-])=O)=O)=O)O
InChI=1S/C5H6O5/c6-2-3(7)1-4(8)5(9)10/h6H,1-2H2,(H,9,10)/p-1
