18
metacyc 5-OXOHEXANOATE  -75.989690848 -75.989690848 -75.989690848 -75.989690848 -75.989690848 -75.989690848 -75.989690848 -75.989690848 -75.989690848 -75.989690848 -75.989690848 -75.989690848 -75.989690848 -75.989690848 -75.989690848
C          2.65634        1.50404       -0.11063
C          2.45424        0.01551        0.01722
O          1.61676       -0.56684       -0.67655
C          3.24127       -0.71478        1.08711
C          4.74577       -0.58540        0.88652
C          5.52167       -1.33113        1.96567
C          7.04512       -1.21740        1.84311
O          7.48063       -0.52683        0.88224
O          7.68230       -1.83506        2.74365
H          1.98974        1.89838       -0.88369
H          3.68444        1.72777       -0.40157
H          2.41511        1.98793        0.83917
H          2.95016       -1.77133        1.06061
H          2.93714       -0.31506        2.06079
H          5.03714        0.47132        0.90283
H          5.01723       -0.96705       -0.10578
H          5.25845       -2.39549        1.94358
H          5.24057       -0.94321        2.95287
18 18 18 18 18 18 18 18 18 18 18 18 18 18 18 18 18 18 18 18 18 18 18 18 18 18 18 18 18 18 18 18 18 18 18 18 18 18 18 18 18 18 18 18 18 18 18 18 18
CC(=O)CCCC([O-])=O
InChI=1S/C6H10O3/c1-5(7)3-2-4-6(8)9/h2-4H2,1H3,(H,8,9)/p-1
