15
metacyc 5-OXOPROLINE  -204.20154256 -204.20154256 -204.20154256 -204.20154256 -204.20154256 -204.20154256 -204.20154256 -204.20154256 -204.20154256 -204.20154256 -204.20154256 -204.20154256 -204.20154256 -204.20154256 -204.20154256
C          1.02389       -0.07201       -0.03246
O          2.22903       -0.42811        0.13356
C          0.13290       -1.11849       -0.76077
N          0.51138       -2.50824       -0.54930
C         -0.55319       -3.35826       -0.42607
C         -1.81450       -2.54328       -0.53180
C         -1.33987       -1.09864       -0.38044
O         -0.49596       -4.57070       -0.29400
O          0.45343        1.01079        0.28194
H          0.24443       -0.93696       -1.83720
H          1.48325       -2.76775       -0.43952
H         -2.50975       -2.81447        0.26732
H         -2.27709       -2.71640       -1.50799
H         -1.48153       -0.77114        0.65682
H         -1.91656       -0.41814       -1.01621
15 15 15 15 15 15 15 15 15 15 15 15 15 15 15 15 15 15 15 15 15 15 15 15 15 15 15 15 15 15 15 15 15 15 15 15 15 15 15 15
C(=O)(C1(NC(CC1)=O))[O-]
InChI=1S/C5H7NO3/c7-4-2-1-3(6-4)5(8)9/h3H,1-2H2,(H,6,7)(H,8,9)/p-1/t3-/m0/s1
