20
metacyc 56-DIHYDROXYINDOLE-2-CARBOXYLATE  -278.29599856 -278.29599856 -278.29599856 -278.29599856 -278.29599856 -278.29599856 -278.29599856 -278.29599856 -278.29599856 -278.29599856 -278.29599856 -278.29599856 -278.29599856 -278.29599856 -278.29599856
C         -1.62817        1.20382       -0.08737
C         -2.40864        0.07394       -0.17657
N         -1.58915       -1.01766       -0.12766
C         -0.27188       -0.62376       -0.08572
C          0.90120       -1.39099       -0.09053
C          2.10428       -0.68742       -0.08788
O          3.30808       -1.34478       -0.13382
C          2.13471        0.70472       -0.05256
O          3.34167        1.35151       -0.07020
C          0.96478        1.45729       -0.01957
C         -0.26941        0.77720       -0.05208
C         -3.86315       -0.03679       -0.32046
O         -4.29370       -1.22901       -0.38614
O         -4.52864        1.03718       -0.37269
H         -2.00528        2.21819       -0.09213
H         -1.95362       -1.96108       -0.17580
H          0.85328       -2.47219       -0.11689
H          3.10969       -2.29520       -0.18986
H          3.99215        0.62553       -0.13715
H          1.00064        2.54034        0.00189
20 20 20 20 20 20 20 20 20 20 20 20 20 20 20 20 20 20 20 20 20 20 20 20 20 20 20 20 20 20 20 20 20 20 20 20 20 20 20 20 20 20 20 20 20 20 20 20 20 20 20 20 20 20 20
C1(=C(NC2(C=C(O)C(O)=CC1=2))C(=O)[O-])
InChI=1S/C9H7NO4/c11-7-2-4-1-6(9(13)14)10-5(4)3-8(7)12/h1-3,10-12H,(H,13,14)/p-1
