23
metacyc 6-DEOXY-D-GLUCOSE  -236.2978852 -236.2978852 -236.2978852 -236.2978852 -236.2978852 -236.2978852 -236.2978852 -236.2978852 -236.2978852 -236.2978852 -236.2978852 -236.2978852 -236.2978852 -236.2978852 -236.2978852
C          0.95784        0.10803        0.03532
C          2.47745        0.00263       -0.07209
O          3.04586        1.30706       -0.02679
C          3.08049       -0.88325        1.03577
O          2.59170       -2.23403        0.97335
C          4.62717       -0.92988        1.09609
O          4.98173       -1.75659        2.22676
C          5.31297       -1.51219       -0.14986
O          4.99201       -0.79905       -1.33429
C          6.81863       -1.50302        0.07185
H          7.19034       -2.18380        0.85633
O          7.59109       -0.79426       -0.57178
H          0.56811        0.74541       -0.76627
H          0.65878        0.57273        0.98075
H          0.47939       -0.87306       -0.04136
H          2.68493       -0.42717       -1.05604
H          2.61311        1.81004        0.68771
H          2.74350       -0.49637        2.00674
H          2.61149       -2.51291        0.03874
H          5.01233        0.07694        1.29673
H          4.26800       -2.42418        2.30829
H          5.02459       -2.55752       -0.30121
H          5.50805        0.03322       -1.31555
23 23 23 23 23 23 23 23 23 23 23 23 23 23 23 23 23 23 23 23 23 23 23 23 23 23 23 23 23 23 23 23 23 23 23 23 23 23 23 23 23 23 23 23 23 23 23 23 23 23 23 23 23 23 23 23 23 23 23 23 23 23 23 23
CC(O)C(O)C(O)C(O)[CH]=O
InChI=1S/C6H12O5/c1-3(8)5(10)6(11)4(9)2-7/h2-6,8-11H,1H3/t3-,4+,5-,6-/m0/s1
