14
metacyc 6-HYDROXY-NICOTINATE  -227.8923338 -227.8923338 -227.8923338 -227.8923338 -227.8923338 -227.8923338 -227.8923338 -227.8923338 -227.8923338 -227.8923338 -227.8923338 -227.8923338 -227.8923338 -227.8923338 -227.8923338
C         -0.70963        1.11431        0.00363
C          0.67480        1.23410       -0.05087
C          1.41358        0.04672       -0.06363
C          0.75985       -1.18103       -0.02919
C         -0.62516       -1.17663        0.01752
N         -1.38074       -0.06874        0.03844
O         -1.32404       -2.35148        0.03827
C          1.33267        2.58343       -0.09589
O          2.60327        2.60133       -0.14529
O          0.57243        3.60042       -0.08276
H         -1.33913        2.00151        0.01827
H          2.50011        0.09613       -0.10260
H          1.33463       -2.09710       -0.03934
H         -0.67694       -3.06249       -0.06072
14 14 14 14 14 14 14 14 14 14 14 14 14 14 14 14 14 14 14 14 14 14 14 14 14 14 14 14 14 14 14 14 14 14 14 14 14
C1(=C(C=CC(=N1)O)C(=O)[O-])
InChI=1S/C6H5NO3/c8-5-2-1-4(3-7-5)6(9)10/h1-3H,(H,7,8)(H,9,10)/p-1
