18
metacyc 6-OXO-HEXANOATE  -62.307985744 -62.307985744 -62.307985744 -62.307985744 -62.307985744 -62.307985744 -62.307985744 -62.307985744 -62.307985744 -62.307985744 -62.307985744 -62.307985744 -62.307985744 -62.307985744 -62.307985744
C          1.09878       -0.00963       -0.03199
C          0.52063       -1.19943       -0.79251
C         -0.98212       -1.15142       -0.75552
O         -1.68748       -2.07626       -0.36056
C          2.62876        0.00695       -0.00966
C          3.24464        0.15633       -1.39815
C          4.77500        0.21645       -1.44087
O          5.37238        0.14368       -0.33336
O          5.25020        0.32786       -2.60650
H          0.73356       -0.03358        1.00292
H          0.72668        0.92840       -0.46343
H          0.86180       -2.14379       -0.35593
H          0.81036       -1.17954       -1.84708
H         -1.43930       -0.23326       -1.16272
H          2.99787       -0.90909        0.46746
H          2.95635        0.84114        0.62329
H          2.86405        1.07063       -1.86939
H          2.95141       -0.68758       -2.03201
18 18 18 18 18 18 18 18 18 18 18 18 18 18 18 18 18 18 18 18 18 18 18 18 18 18 18 18 18 18 18 18 18 18 18 18 18 18 18 18 18 18 18 18 18 18 18 18 18
C(CC=O)CCC(=O)[O-]
InChI=1S/C6H10O3/c7-5-3-1-2-4-6(8)9/h5H,1-4H2,(H,8,9)/p-1
