22
metacyc ACETYL-GLU  -429.01957776 -429.01957776 -429.01957776 -429.01957776 -429.01957776 -429.01957776 -429.01957776 -429.01957776 -429.01957776 -429.01957776 -429.01957776 -429.01957776 -429.01957776 -429.01957776 -429.01957776
C          1.07629        0.37241        0.78327
C          2.56745        0.16523        0.76101
O          3.08334       -0.81085        1.29940
N          3.23103        1.21927        0.18692
C          4.69803        1.23725       -0.01154
C          5.12107        0.70173       -1.43054
O          6.35260        0.45870       -1.59749
O          4.16321        0.55849       -2.25698
C          5.21193        2.67996        0.15864
C          4.90318        3.25370        1.54925
C          5.33962        4.69764        1.81231
O          5.41907        5.46410        0.81252
O          5.52934        4.97684        3.03514
H          0.57017       -0.59569        0.81781
H          0.73305        0.90987       -0.10481
H          0.81799        0.94953        1.67609
H          2.75986        1.67340       -0.58583
H          5.15547        0.58304        0.74146
H          4.76406        3.32135       -0.61110
H          6.29666        2.71372       -0.00766
H          5.36105        2.60777        2.30890
H          3.82051        3.23562        1.72688
22 22 22 22 22 22 22 22 22 22 22 22 22 22 22 22 22 22 22 22 22 22 22 22 22 22 22 22 22 22 22 22 22 22 22 22 22 22 22 22 22 22 22 22 22 22 22 22 22 22 22 22 22 22 22 22 22 22 22 22 22
CC(=O)NC(C([O-])=O)CCC(=O)[O-]
InChI=1S/C7H11NO5/c1-4(9)8-5(7(12)13)2-3-6(10)11/h5H,2-3H2,1H3,(H,8,9)(H,10,11)(H,12,13)/p-2/t5-/m0/s1
