11
metacyc ACETOL  -43.1089026 -43.1089026 -43.1089026 -43.1089026 -43.1089026 -43.1089026 -43.1089026 -43.1089026 -43.1089026 -43.1089026 -43.1089026 -43.1089026 -43.1089026 -43.1089026 -43.1089026
C          1.11153        0.02265        0.09366
C          2.60834       -0.09597        0.00885
O          3.23670        0.24925       -0.99306
C          3.31540       -0.71605        1.20671
O          4.72555       -0.71885        1.04810
H          0.73545        0.56737       -0.77662
H          0.83601        0.57257        0.99686
H          0.66826       -0.97585        0.11047
H          2.97726       -1.74979        1.32136
H          3.07202       -0.14380        2.10582
H          4.89434       -0.57725        0.09409
11 11 11 11 11 11 11 11 11 11 11 11 11 11 11 11 11 11 11 11 11 11 11 11 11 11 11 11
CC(=O)CO
InChI=1S/C3H6O2/c1-3(5)2-4/h4H,2H2,1H3
