16
metacyc ACETYLSERINE  -289.36506344 -289.36506344 -289.36506344 -289.36506344 -289.36506344 -289.36506344 -289.36506344 -289.36506344 -289.36506344 -289.36506344 -289.36506344 -289.36506344 -289.36506344 -289.36506344 -289.36506344
C          4.37296       -1.30033        0.56452
C          3.66746       -0.33506        1.46792
O          3.30211        0.77463        0.78005
C          2.61789        1.81001        1.52679
C          3.59739        2.71321        2.26496
N          4.48262        3.40326        1.31532
C          2.82493        3.79782        3.03991
O          1.70463        4.14673        2.56323
O          3.38668        4.20375        4.10096
O          3.46106       -0.55418        2.65361
H          4.41301       -0.92046       -0.46049
H          3.82740       -2.24751        0.55739
H          5.39532       -1.44941        0.91971
H          1.89512        1.35456        2.21676
H          2.02982        2.36953        0.78932
H          4.21747        2.12806        2.95194
16 16 16 16 16 16 16 16 16 16 16 16 16 16 16 16 16 16 16 16 16 16 16 16 16 16 16 16 16 16 16 16 16 16 16 16 16 16 16 16 16 16 16
CC(OCC([N+])C(=O)[O-])=O
InChI=1S/C5H9NO4/c1-3(7)10-2-4(6)5(8)9/h4H,2,6H2,1H3,(H,8,9)/t4-/m0/s1
