18
metacyc ADIPATE  -329.69618752 -329.69618752 -329.69618752 -329.69618752 -329.69618752 -329.69618752 -329.69618752 -329.69618752 -329.69618752 -329.69618752 -329.69618752 -329.69618752 -329.69618752 -329.69618752 -329.69618752
C          0.92045        0.08079       -0.01234
C          0.28587        0.95704       -1.09013
C          0.56730        0.59042       -2.55028
O          0.73554       -0.63785       -2.80149
O          0.53076        1.56255       -3.36554
C          2.45173        0.14041        0.06056
C          3.03518        1.52287        0.35080
C          2.74015        2.13711        1.72385
O          2.61584        1.32872        2.68863
O          2.72366        3.40344        1.75221
H          0.62674       -0.96386       -0.17499
H          0.50436        0.36283        0.96332
H          0.54266        2.00771       -0.91642
H         -0.80587        0.89722       -0.97693
H          2.87061       -0.22647       -0.88459
H          2.78676       -0.56416        0.83341
H          2.74197        2.22479       -0.43825
H          4.12867        1.44450        0.29076
18 18 18 18 18 18 18 18 18 18 18 18 18 18 18 18 18 18 18 18 18 18 18 18 18 18 18 18 18 18 18 18 18 18 18 18 18 18 18 18 18 18 18 18 18 18 18 18 18
C(CC([O-])=O)CCC(=O)[O-]
InChI=1S/C6H10O4/c7-5(8)3-1-2-4-6(9)10/h1-4H2,(H,7,8)(H,9,10)/p-2
