19
metacyc ALLANTOATE  -398.9620774 -398.9620774 -398.9620774 -398.9620774 -398.9620774 -398.9620774 -398.9620774 -398.9620774 -398.9620774 -398.9620774 -398.9620774 -398.9620774 -398.9620774 -398.9620774 -398.9620774
C          0.88997        0.11900        0.18263
C          0.57804        1.67411       -0.02895
O          1.09300        2.12468       -1.11115
O         -0.11193        2.26580        0.84119
N          0.41383       -0.64939       -0.97126
C         -0.81266       -1.23098       -0.95916
O         -1.57067       -1.34472       -0.00599
N         -1.12200       -1.80463       -2.15146
N          2.33645       -0.10992        0.21386
C          3.01551       -0.09804        1.39139
O          2.54390       -0.06784        2.51796
N          4.35589       -0.22494        1.21237
H          0.42604       -0.24495        1.10506
H          0.64188       -0.16038       -1.82407
H         -0.62785       -1.53943       -2.98571
H         -2.05524       -2.18077       -2.22401
H          2.78323        0.39108       -0.53673
H          4.77012       -0.00948        0.32169
H          4.91255       -0.13630        2.04902
19 19 19 19 19 19 19 19 19 19 19 19 19 19 19 19 19 19 19 19 19 19 19 19 19 19 19 19 19 19 19 19 19 19 19 19 19 19 19 19 19 19 19 19 19 19 19 19 19 19 19 19
C(C(=O)[O-])(NC(=O)N)NC(=O)N
InChI=1S/C4H8N4O4/c5-3(11)7-1(2(9)10)8-4(6)12/h1H,(H,9,10)(H3,5,7,11)(H3,6,8,12)/p-1
