24
metacyc Alpha-D-Talose  -397.59112704 -397.59112704 -397.59112704 -397.59112704 -397.59112704 -397.59112704 -397.59112704 -397.59112704 -397.59112704 -397.59112704 -397.59112704 -397.59112704 -397.59112704 -397.59112704 -397.59112704
C          0.94300        0.24828        0.08994
O          0.60372        1.60523        0.35402
C          2.46598        0.09850       -0.07299
C          2.90182       -1.34556       -0.35274
O          2.25410       -2.26088        0.53038
C          2.61057       -1.74183       -1.80669
O          3.19348       -3.02968       -2.05171
C          3.15830       -0.70500       -2.78492
O          4.60264       -0.71704       -2.72361
C          2.63427        0.68756       -2.41253
O          3.21046        1.66972       -3.25892
O          2.98945        1.00669       -1.06646
H          0.40302       -0.05184       -0.81075
H          0.57380       -0.35637        0.92324
H          1.21425        2.16498       -0.15948
H          2.91570        0.41863        0.87588
H          3.98039       -1.44070       -0.16874
H          2.31900       -3.14217        0.10983
H          1.53092       -1.86272       -1.94714
H          4.11536       -2.86467       -2.33886
H          2.90103       -0.96448       -3.81703
H          4.86868       -0.12741       -1.98806
H          1.54747        0.75263       -2.53681
H          4.09232        1.34268       -3.51209
24 24 24 24 24 24 24 24 24 24 24 24 24 24 24 24 24 24 24 24 24 24 24 24 24 24 24 24 24 24 24 24 24 24 24 24 24 24 24 24 24 24 24 24 24 24 24 24 24 24 24 24 24 24 24 24 24 24 24 24 24 24 24 24 24 24 24
C(O)C1(C(O)C(O)C(O)C(O)O1)
InChI=1S/C6H12O6/c7-1-2-3(8)4(9)5(10)6(11)12-2/h2-11H,1H2/t2-,3+,4+,5+,6+/m1/s1
