24
metacyc ALPHA-D-GALACTOSE  -397.59112704 -397.59112704 -397.59112704 -397.59112704 -397.59112704 -397.59112704 -397.59112704 -397.59112704 -397.59112704 -397.59112704 -397.59112704 -397.59112704 -397.59112704 -397.59112704 -397.59112704
C          0.93242        0.15343        0.04660
O          0.58573        1.48072        0.42018
C          2.45095        0.02057       -0.14767
O          2.83911       -1.31615       -0.50184
C          2.47741       -1.72674       -1.81994
O          3.01241       -3.02478       -2.03238
C          3.00486       -0.77204       -2.90960
O          4.44370       -0.89853       -2.99217
C          2.60123        0.66902       -2.57375
O          3.18765        1.58086       -3.50585
C          3.04371        1.02825       -1.14849
O          4.48873        0.95278       -1.10665
H          0.36271       -0.12618       -0.84476
H          0.60625       -0.52393        0.84489
H          0.21961        1.93710       -0.35862
H          2.92119        0.21559        0.82459
H          1.38690       -1.81395       -1.87734
H          3.92229       -2.86689       -2.35369
H          2.63045       -1.06761       -3.89441
H          4.80685       -0.42701       -2.20946
H          1.51563        0.77780       -2.66767
H          4.15378        1.45485       -3.42631
H          2.77713        2.06253       -0.90704
H          4.75406        1.03194       -0.17042
24 24 24 24 24 24 24 24 24 24 24 24 24 24 24 24 24 24 24 24 24 24 24 24 24 24 24 24 24 24 24 24 24 24 24 24 24 24 24 24 24 24 24 24 24 24 24 24 24 24 24 24 24 24 24 24 24 24 24 24 24 24 24 24 24 24 24
C(O)C1(OC(O)C(O)C(O)C(O)1)
InChI=1S/C6H12O6/c7-1-2-3(8)4(9)5(10)6(11)12-2/h2-11H,1H2/t2-,3+,4+,5-,6+/m1/s1
