18
metacyc ALPHA-AMINOPHENYL-GLYOXYLATE  -50.48136164 -50.48136164 -50.48136164 -50.48136164 -50.48136164 -50.48136164 -50.48136164 -50.48136164 -50.48136164 -50.48136164 -50.48136164 -50.48136164 -50.48136164 -50.48136164 -50.48136164
C         -0.64268       -1.21102       -0.00175
C         -1.38859       -0.03694        0.02935
C         -0.73980        1.19899        0.01630
C          0.65821        1.27715       -0.06349
N          1.26104        2.55168        0.06299
C          1.41540        0.08311       -0.05053
C          0.75283       -1.15260       -0.04184
C          2.90353        0.15147       -0.15197
O          3.41430        1.13990       -0.69467
C          3.87874       -0.91947        0.37186
O          3.37200       -1.85182        1.07766
O          5.10686       -0.80394        0.06186
H         -1.13871       -2.17747        0.01871
H         -2.47209       -0.08003        0.08040
H         -1.32912        2.10906        0.07769
H          0.76897        3.27658       -0.44215
H          2.24617        2.48739       -0.23849
H          1.31515       -2.08358       -0.06126
18 18 18 18 18 18 18 18 18 18 18 18 18 18 18 18 18 18 18 18 18 18 18 18 18 18 18 18 18 18 18 18 18 18 18 18 18 18 18 18 18 18 18 18 18 18 18 18 18
C1(C=CC(N)=C(C=1)C(=O)C(=O)[O-])
InChI=1S/C8H7NO3/c9-6-4-2-1-3-5(6)7(10)8(11)12/h1-4H,9H2,(H,11,12)/p-1
