24
metacyc ALPHA-GLUCOSE  -397.59112704 -397.59112704 -397.59112704 -397.59112704 -397.59112704 -397.59112704 -397.59112704 -397.59112704 -397.59112704 -397.59112704 -397.59112704 -397.59112704 -397.59112704 -397.59112704 -397.59112704
C          1.02660        0.01134        0.05928
O          0.66935        1.33350        0.44079
C          2.54653       -0.11321       -0.13340
O          2.94384       -1.44777       -0.48429
C          2.58249       -1.86230       -1.80108
C          3.10226       -0.90569       -2.89557
C          2.69458        0.53637       -2.56064
C          3.13684        0.89527       -1.13411
O          4.58193        0.81974       -1.09569
O          3.27443        1.45094       -3.49089
O          4.54143       -1.02759       -2.98426
O          3.12508       -3.15784       -2.01481
H          0.45860       -0.26635       -0.83364
H          0.70414       -0.67344        0.85162
H          0.34712        1.80870       -0.34495
H          3.01330        0.08561        0.83955
H          1.49370       -1.95479       -1.85823
H          2.72539       -1.20404       -3.87722
H          1.60755        0.63931       -2.65298
H          2.86961        1.92923       -0.89313
H          4.84856        0.85527       -0.15616
H          4.24246        1.32069       -3.42167
H          4.90719       -0.55165       -2.20384
H          4.03176       -2.99467       -2.34211
24 24 24 24 24 24 24 24 24 24 24 24 24 24 24 24 24 24 24 24 24 24 24 24 24 24 24 24 24 24 24 24 24 24 24 24 24 24 24 24 24 24 24 24 24 24 24 24 24 24 24 24 24 24 24 24 24 24 24 24 24 24 24 24 24 24 24
C(O)C1(OC(C(C(C1O)O)O)O)
InChI=1S/C6H12O6/c7-1-2-3(8)4(9)5(10)6(11)12-2/h2-11H,1H2/t2-,3-,4+,5-,6+/m1/s1
