24
metacyc ALTROSE  -387.884272144 -387.884272144 -387.884272144 -387.884272144 -387.884272144 -387.884272144 -387.884272144 -387.884272144 -387.884272144 -387.884272144 -387.884272144 -387.884272144 -387.884272144 -387.884272144 -387.884272144
C          0.84339        0.17862       -2.13637
H          0.24410       -0.72374       -2.34892
O          0.33590        1.21200       -1.70737
C          2.34222        0.04017       -2.39225
O          2.94869        1.32681       -2.47853
C          2.97276       -0.77123       -1.25275
O          2.47427       -2.11898       -1.22038
C          4.52212       -0.79460       -1.27725
O          4.97236       -1.48917       -0.10224
C          5.13657       -1.47983       -2.51462
O          4.72874       -0.85735       -3.73290
C          6.67221       -1.51135       -2.44465
O          7.23077       -2.10240       -3.61922
H          2.42478       -0.46010       -3.35823
H          2.49690        1.89449       -1.82070
H          2.67570       -0.32555       -0.29409
H          2.60676       -2.52221       -2.09674
H          4.89535        0.23413       -1.20639
H          4.39521       -2.27198       -0.00012
H          4.78634       -2.51621       -2.57398
H          5.13980        0.02942       -3.76900
H          7.01569       -2.08985       -1.58244
H          7.07868       -0.49776       -2.37337
H          6.56543       -2.70042       -4.00213
24 24 24 24 24 24 24 24 24 24 24 24 24 24 24 24 24 24 24 24 24 24 24 24 24 24 24 24 24 24 24 24 24 24 24 24 24 24 24 24 24 24 24 24 24 24 24 24 24 24 24 24 24 24 24 24 24 24 24 24 24 24 24 24 24 24 24
[CH](=O)C(O)C(O)C(O)C(O)CO
InChI=1S/C6H12O6/c7-1-3(9)5(11)6(12)4(10)2-8/h1,3-6,8-12H,2H2/t3-,4-,5+,6-/m1/s1
