20
metacyc AMINO-ETCETERA-PYRIDIN-1-YL-PROPANOATE  -54.734954112 -54.734954112 -54.734954112 -54.734954112 -54.734954112 -54.734954112 -54.734954112 -54.734954112 -54.734954112 -54.734954112 -54.734954112 -54.734954112 -54.734954112 -54.734954112 -54.734954112
C         -0.60369       -1.18142       -0.06079
N         -1.32747       -0.00615       -0.07799
C         -0.61834        1.18988        0.00106
C          0.72098        1.36498        0.08108
C          1.50279        0.03410        0.04614
C          0.72671       -1.23490       -0.00148
O          2.73369       -0.07010        0.05853
O          1.38351        2.44226        0.17494
C         -2.81179       -0.03186       -0.18257
C         -3.31370        0.01634       -1.62659
N         -2.88100       -1.14238       -2.42254
C         -4.85686       -0.02408       -1.61938
O         -5.41552       -0.66546       -0.67890
O         -5.42404        0.60849       -2.56287
H         -1.20127       -2.08557       -0.10601
H         -1.25622        2.06909        0.00711
H          1.28526       -2.15642        0.00408
H         -3.22522        0.81772        0.37874
H         -3.17977       -0.92691        0.33761
H         -2.97001        0.93522       -2.11508
20 20 20 20 20 20 20 20 20 20 20 20 20 20 20 20 20 20 20 20 20 20 20 20 20 20 20 20 20 20 20 20 20 20 20 20 20 20 20 20 20 20 20 20 20 20 20 20 20 20 20 20 20 20 20
C1(N(C=C(C(C=1)=O)[O-])CC([N+])C(=O)[O-])
InChI=1S/C8H10N2O4/c9-5(8(13)14)3-10-2-1-6(11)7(12)4-10/h1-2,4-5,12H,3,9H2,(H,13,14)/p-1/t5-/m0/s1
