9
metacyc AMINOMALONATE  -529.68421196 -529.68421196 -529.68421196 -529.68421196 -529.68421196 -529.68421196 -529.68421196 -529.68421196 -529.68421196 -529.68421196 -529.68421196 -529.68421196 -529.68421196 -529.68421196 -529.68421196
C          1.07541        0.09398        0.05039
N          0.80137        1.03092        1.15776
C          0.51768        0.62301       -1.26931
O          0.36040        1.87691       -1.41975
O          0.07291       -0.27927       -2.05637
C          2.57678       -0.13307       -0.03321
O          2.97670       -1.20947        0.53727
O          3.32786        0.74290       -0.55433
H          0.57457       -0.85540        0.28129
9 9 9 9 9 9 9 9 9 9 9 9 9 9 9 9 9 9 9 9 9 9
C([N+])(C(=O)[O-])C(=O)[O-]
InChI=1S/C3H5NO4/c4-1(2(5)6)3(7)8/h1H,4H2,(H,5,6)(H,7,8)/p-1
