12
metacyc AMINO-OXOBUT  -185.86231744 -185.86231744 -185.86231744 -185.86231744 -185.86231744 -185.86231744 -185.86231744 -185.86231744 -185.86231744 -185.86231744 -185.86231744 -185.86231744 -185.86231744 -185.86231744 -185.86231744
C          0.98700        0.14600       -0.08835
C          2.49027       -0.00298       -0.05277
O          2.98147       -1.01429        0.47037
C          3.36743        1.02822       -0.71990
N          3.03812        1.08083       -2.14948
C          3.17619        2.41098       -0.10374
O          2.01764        2.91659       -0.16019
O          4.21858        2.91322        0.41573
H          0.53138       -0.74640        0.35681
H          0.63538        0.22074       -1.11933
H          0.66041        1.00459        0.49748
H          4.41102        0.71221       -0.61608
12 12 12 12 12 12 12 12 12 12 12 12 12 12 12 12 12 12 12 12 12 12 12 12 12 12 12 12 12 12 12
CC(=O)C([N+])C([O-])=O
InChI=1S/C4H7NO3/c1-2(6)3(5)4(7)8/h3H,5H2,1H3,(H,7,8)/t3-/m0/s1
