19
metacyc ASCORBATE  -613.89417832 -613.89417832 -613.89417832 -613.89417832 -613.89417832 -613.89417832 -613.89417832 -613.89417832 -613.89417832 -613.89417832 -613.89417832 -613.89417832 -613.89417832 -613.89417832 -613.89417832
C          1.68332       -0.32013        1.12902
O          0.52830        0.49562        1.31336
C          2.45622        0.04986       -0.14284
O          1.49637        0.21956       -1.20814
C          3.35783        1.30253        0.03014
H          4.02956        1.14408        0.88409
C          4.16194        1.67868       -1.19183
O          4.89985        0.80600       -1.71778
C          3.92095        2.96028       -1.46791
O          4.52645        3.63567       -2.49459
C          2.93893        3.49583       -0.51465
O          2.50647        4.63443       -0.46620
O          2.57876        2.48163        0.32667
H          1.31845       -1.34964        1.04133
H          2.31262       -0.26197        2.02280
H          0.24518        0.71201        0.39918
H          3.08531       -0.80984       -0.40171
H          2.05750        0.47877       -1.97043
H          5.10921        2.92655       -2.84691
19 19 19 19 19 19 19 19 19 19 19 19 19 19 19 19 19 19 19 19 19 19 19 19 19 19 19 19 19 19 19 19 19 19 19 19 19 19 19 19 19 19 19 19 19 19 19 19 19 19 19 19
C(O)C(O)[CH]1(C([O-])=C(O)C(=O)O1)
InChI=1S/C6H8O6/c7-1-2(8)5-3(9)4(10)6(11)12-5/h2,5,7-10H,1H2/p-1/t2-,5+/m0/s1
