14
metacyc ASN  -182.13382952 -182.13382952 -182.13382952 -182.13382952 -182.13382952 -182.13382952 -182.13382952 -182.13382952 -182.13382952 -182.13382952 -182.13382952 -182.13382952 -182.13382952 -182.13382952 -182.13382952
C          1.11553       -0.09358        0.20643
C          0.44038        1.20323       -0.17391
C          1.42157        2.36788       -0.24270
C          2.49216        2.25958       -1.35306
O          2.24603        1.43731       -2.28768
O          3.54659        2.93865       -1.16633
N          0.66462        3.60195       -0.50755
N          1.88440       -0.66984       -0.75932
O          0.96386       -0.63837        1.29872
H         -0.32576        1.40225        0.58673
H         -0.09133        1.05422       -1.12147
H          1.93697        2.47244        0.71958
H          2.15592       -0.09885       -1.57760
H          2.47365       -1.44900       -0.51902
14 14 14 14 14 14 14 14 14 14 14 14 14 14 14 14 14 14 14 14 14 14 14 14 14 14 14 14 14 14 14 14 14 14 14 14 14
C(CC(C(=O)[O-])[N+])(N)=O
InChI=1S/C4H8N2O3/c5-2(4(8)9)1-3(6)7/h2H,1,5H2,(H2,6,7)(H,8,9)/t2-/m0/s1
