10
metacyc B-ALANINE  -59.46367744 -59.46367744 -59.46367744 -59.46367744 -59.46367744 -59.46367744 -59.46367744 -59.46367744 -59.46367744 -59.46367744 -59.46367744 -59.46367744 -59.46367744 -59.46367744 -59.46367744
C          0.95318        0.04422        0.03872
C          0.42179        1.22314       -0.75018
N         -1.04167        1.21286       -0.74331
C          2.47760        0.01751        0.05659
O          2.97003       -0.95032        0.70425
O          3.06902        0.94344       -0.56301
H          0.59867       -0.89823       -0.39678
H          0.59866        0.08732        1.07601
H          0.76440        1.18681       -1.78992
H          0.76440        2.17042       -0.32003
10 10 10 10 10 10 10 10 10 10 10 10 10 10 10 10 10 10 10 10 10 10 10 10 10
C(C[N+])C([O-])=O
InChI=1S/C3H7NO2/c4-2-1-3(5)6/h1-2,4H2,(H,5,6)
