24
metacyc BETA-D-FRUCTOSE  -401.31488704 -401.31488704 -401.31488704 -401.31488704 -401.31488704 -401.31488704 -401.31488704 -401.31488704 -401.31488704 -401.31488704 -401.31488704 -401.31488704 -401.31488704 -401.31488704 -401.31488704
C          1.02335        0.11352        0.16204
O          0.57622       -0.01566        1.51073
C          2.54518        0.01380        0.07736
O          3.15390        1.06071        0.86177
C          4.47650        0.61290        1.16343
O          4.87007        1.19819        2.40068
C          5.48286        1.06786        0.08472
O          6.81194        0.66474        0.43695
C          4.39521       -0.92330        1.32475
C          3.10404       -1.30620        0.60196
O          3.35116       -2.20186       -0.48399
O          5.48693       -1.68912        0.79491
H          0.68465        1.08877       -0.20099
H          0.54821       -0.66757       -0.43740
H          1.03714        0.67795        2.01564
H          2.83823        0.16835       -0.96854
H          4.74080        2.15741        2.28057
H          5.47897        2.15833       -0.01059
H          5.24027        0.65300       -0.89737
H          6.98919        1.04878        1.31738
H          4.31143       -1.17787        2.38664
H          2.42208       -1.80046        1.30139
H          4.25157       -2.55841       -0.31725
H          6.28934       -1.12511        0.82370
24 24 24 24 24 24 24 24 24 24 24 24 24 24 24 24 24 24 24 24 24 24 24 24 24 24 24 24 24 24 24 24 24 24 24 24 24 24 24 24 24 24 24 24 24 24 24 24 24 24 24 24 24 24 24 24 24 24 24 24 24 24 24 24 24 24 24
C(O)C1(OC(O)(CO)C(C1O)O)
InChI=1S/C6H12O6/c7-1-3-4(9)5(10)6(11,2-8)12-3/h3-5,7-11H,1-2H2/t3-,4-,5+,6-/m1/s1
