13
metacyc BUTYRIC_ACID  -53.11259556 -53.11259556 -53.11259556 -53.11259556 -53.11259556 -53.11259556 -53.11259556 -53.11259556 -53.11259556 -53.11259556 -53.11259556 -53.11259556 -53.11259556 -53.11259556 -53.11259556
C          0.92455        0.06641        0.05017
C          2.44490        0.05488        0.04038
C          3.01980        1.13398        0.95061
C          4.54977        1.19668        1.00349
O          5.17560        0.35960        0.29737
O          5.00236        2.09985        1.76531
H          0.53548       -0.71557       -0.60946
H          0.53711        1.02890       -0.29888
H          0.53718       -0.11550        1.05774
H          2.79855        0.20387       -0.98672
H          2.79861       -0.93240        0.36030
H          2.65907        0.97822        1.97502
H          2.65904        2.11747        0.62444
13 13 13 13 13 13 13 13 13 13 13 13 13 13 13 13 13 13 13 13 13 13 13 13 13 13 13 13 13 13 13 13 13 13
CCCC(=O)[O-]
InChI=1S/C4H8O2/c1-2-3-4(5)6/h2-3H2,1H3,(H,5,6)/p-1
