21
metacyc C8  -83.195969776 -83.195969776 -83.195969776 -83.195969776 -83.195969776 -83.195969776 -83.195969776 -83.195969776 -83.195969776 -83.195969776 -83.195969776 -83.195969776 -83.195969776 -83.195969776 -83.195969776
C          1.53954        0.45059       -3.35304
C          0.46920        1.14021       -2.46442
C         -0.45739        0.16988       -1.72166
C         -1.54026        0.83273       -0.85291
C         -2.51209        1.76943       -1.58682
C         -3.34668        1.09003       -2.67665
C         -4.36759        0.03195       -2.17365
O         -4.84192        0.20827       -1.01192
O         -4.61665       -0.91013       -2.98486
N         -4.14479        2.12672       -3.35694
N          1.20893        1.97927       -1.50836
O          1.94182       -0.69364       -2.98629
O          1.90153        1.11457       -4.37413
H         -0.12625        1.79221       -3.11220
H          0.13670       -0.48412       -1.06874
H         -0.93398       -0.50108       -2.44653
H         -1.05573        1.40366       -0.05042
H         -2.11075        0.04240       -0.34942
H         -1.94696        2.60562       -2.01686
H         -3.17520        2.21875       -0.83508
H         -2.68958        0.63449       -3.42507
21 21 21 21 21 21 21 21 21 21 21 21 21 21 21 21 21 21 21 21 21 21 21 21 21 21 21 21 21 21 21 21 21 21 21 21 21 21 21 21 21 21 21 21 21 21 21 21 21 21 21 21 21 21 21 21 21 21
C(C(CCCC(C([O-])=O)[N+])[N+])([O-])=O
InChI=1S/C7H14N2O4/c8-4(6(10)11)2-1-3-5(9)7(12)13/h4-5H,1-3,8-9H2,(H,10,11)(H,12,13)/t4-,5-/m1/s1
