30
metacyc CANAVANINOSUCCINATE  -401.56052968 -401.56052968 -401.56052968 -401.56052968 -401.56052968 -401.56052968 -401.56052968 -401.56052968 -401.56052968 -401.56052968 -401.56052968 -401.56052968 -401.56052968 -401.56052968 -401.56052968
C          0.92185       -0.09032       -0.81192
O          0.45238        1.25559       -0.67983
N         -0.91121        1.27415       -0.40473
C         -1.62370        2.26092       -0.92216
N         -1.12032        3.00310       -1.80591
N         -2.83577        2.55711       -0.56020
C         -3.64077        2.13342        0.63941
C         -2.89442        2.66305        1.84192
C         -3.48046        2.13925        3.13305
O         -3.56315        0.87965        3.19327
O         -3.63496        3.00757        4.03745
C         -4.98432        2.92808        0.37763
O         -4.85073        3.78783       -0.57001
O         -6.01803        2.59277        1.00380
C          0.68629       -0.50402       -2.26479
C          1.29783       -1.83864       -2.67506
N          2.75122       -1.81378       -2.46516
C          0.72281       -3.07491       -1.95249
O         -0.14291       -2.83604       -1.06109
O          1.13764       -4.19487       -2.37400
H          0.44280       -0.73312       -0.06942
H          1.99243       -0.06486       -0.58369
H         -1.32339        0.57274        0.20415
H         -3.34381        3.32550       -1.03221
H         -3.79441        1.05112        0.60172
H         -2.86963        3.75870        1.83895
H         -1.84918        2.32894        1.82728
H          1.07507        0.28951       -2.91879
H         -0.39579       -0.51853       -2.45450
H          1.11095       -1.98202       -3.74676
30 30 30 30 30 30 30 30 30 30 30 30 30 30 30 30 30 30 30 30 30 30 30 30 30 30 30 30 30 30 30 30 30 30 30 30 30 30 30 30 30 30 30 30 30 30 30 30 30 30 30 30 30 30 30 30 30 30 30 30 30 30 30 30 30 30 30 30 30 30 30 30 30 30 30 30 30 30 30 30 30 30 30 30 30
C(ONC(=[N+])NC(CC(=O)[O-])C(=O)[O-])CC([N+])C([O-])=O
InChI=1S/C9H16N4O7/c10-4(7(16)17)1-2-20-13-9(11)12-5(8(18)19)3-6(14)15/h4-5H,1-3,10H2,(H,14,15)(H,16,17)(H,18,19)(H3,11,12,13)/p-1/t4-,5?/m0/s1
