6
metacyc CARBAMATE  -314.343141776 -314.343141776 -314.343141776 -314.343141776 -314.343141776 -314.343141776 -314.343141776 -314.343141776 -314.343141776 -314.343141776 -314.343141776 -314.343141776 -314.343141776 -314.343141776 -314.343141776
C          1.09906       -0.03607       -0.05169
O          0.58548       -1.07173        0.42633
O          0.60061        1.00565       -0.53252
N          2.40344       -0.04390       -0.04808
H          2.90532       -0.83159        0.31549
H          2.91675        0.73769       -0.40884
6 6 6 6 6 6 6 6 6 6 6 6 6
C(=O)([O-])N
InChI=1S/CH3NO2/c2-1(3)4/h2H2,(H,3,4)/p-1
