2
metacyc CARBON-MONOXIDE  -137.2352 -137.2352 -137.2352 -137.2352 -137.2352 -137.2352 -137.2352 -137.2352 -137.2352 -137.2352 -137.2352 -137.2352 -137.2352 -137.2352 -137.2352
C          1.08163        0.08187       -0.05741
O          2.13863        0.08187       -0.05741
2
[C-]#[O+]
InChI=1S/CO/c1-2
