16
metacyc CARBAMOYL-SARCOSINE  -286.62161464 -286.62161464 -286.62161464 -286.62161464 -286.62161464 -286.62161464 -286.62161464 -286.62161464 -286.62161464 -286.62161464 -286.62161464 -286.62161464 -286.62161464 -286.62161464 -286.62161464
C          0.92122       -0.10931        0.20923
N          2.35832        0.02309        0.10022
C          2.90787        0.72469       -1.08695
C          3.85482       -0.11247       -1.98527
O          3.34523       -0.56815       -3.04691
O          5.03900       -0.23089       -1.54138
C          3.12463       -0.46069        1.13679
N          4.45745       -0.23684        1.05942
O          2.66150       -1.02727        2.12641
H          0.41053        0.27109       -0.67895
H          0.58517        0.45099        1.08638
H          0.66194       -1.16428        0.34861
H          3.45302        1.60385       -0.72362
H          2.08058        1.09808       -1.70245
H          4.87200       -0.24297        0.11778
H          4.99936       -0.76170        1.72527
16 16 16 16 16 16 16 16 16 16 16 16 16 16 16 16 16 16 16 16 16 16 16 16 16 16 16 16 16 16 16 16 16 16 16 16 16 16 16 16 16 16 16
CN(CC(=O)[O-])C(N)=O
InChI=1S/C4H8N2O3/c1-6(4(5)9)2-3(7)8/h2H2,1H3,(H2,5,9)(H,7,8)/p-1
