3
metacyc CARBON-DIOXIDE  -386.01584 -386.01584 -386.01584 -386.01584 -386.01584 -386.01584 -386.01584 -386.01584 -386.01584 -386.01584 -386.01584 -386.01584 -386.01584 -386.01584 -386.01584
C          1.03421        0.08456        0.04099
O         -0.16279        0.08456        0.04099
O          2.23121        0.08456        0.04099
3 3 3 3
C(=O)=O
InChI=1S/CO2/c2-1-3
