12
metacyc CH3-MALONATE-S-ALD  -255.33468772 -255.33468772 -255.33468772 -255.33468772 -255.33468772 -255.33468772 -255.33468772 -255.33468772 -255.33468772 -255.33468772 -255.33468772 -255.33468772 -255.33468772 -255.33468772 -255.33468772
C          0.90589        0.07044       -0.05219
C          2.42462        0.04782       -0.10858
C          2.96264       -1.36100       -0.07692
H          4.04066       -1.47295       -0.28930
O          2.31650       -2.34614        0.28763
C          3.03392        0.72888       -1.33164
O          2.23190        1.19991       -2.18412
O          4.30006        0.76015       -1.33423
H          0.54144       -0.39529        0.87057
H          0.46404       -0.47534       -0.89336
H          0.52735        1.09779       -0.07977
H          2.81864        0.55797        0.77928
12 12 12 12 12 12 12 12 12 12 12 12 12 12 12 12 12 12 12 12 12 12 12 12 12 12 12 12 12 12 12
CC([CH]=O)C(=O)[O-]
InChI=1S/C4H6O3/c1-3(2-5)4(6)7/h2-3H,1H3,(H,6,7)/p-1/t3-/m0/s1
