15
metacyc CIS-ACONITATE  -799.96067496 -799.96067496 -799.96067496 -799.96067496 -799.96067496 -799.96067496 -799.96067496 -799.96067496 -799.96067496 -799.96067496 -799.96067496 -799.96067496 -799.96067496 -799.96067496 -799.96067496
C          0.88478       -0.06871        0.12793
O          0.48596       -0.25343        1.32721
O          0.20602       -0.24729       -0.93309
C          2.42585        0.17445       -0.04045
C          2.96184        1.06921       -0.90106
C          2.34206        2.10826       -1.86049
O          1.38182        2.81272       -1.44168
O          3.01987        2.28492       -2.93180
C          3.26529       -0.74630        0.84725
C          4.79651       -0.76184        0.79562
O          5.40640       -0.00107        1.61322
O          5.33184       -1.64858        0.05333
H          4.04931        1.09932       -0.97165
H          2.93703       -1.77742        0.65454
H          3.00077       -0.53709        1.89198
15 15 15 15 15 15 15 15 15 15 15 15 15 15 15 15 15 15 15 15 15 15 15 15 15 15 15 15 15 15 15 15 15 15 15 15 15 15 15 15
C([O-])(=O)C(=CC(=O)[O-])CC(=O)[O-]
InChI=1S/C6H6O6/c7-4(8)1-3(6(11)12)2-5(9)10/h1H,2H2,(H,7,8)(H,9,10)(H,11,12)/p-3/b3-1-
