20
metacyc CIS-34-DIHYDROXYCYCLOHEXA-162-DIENE-  -691.70523968 -691.70523968 -691.70523968 -691.70523968 -691.70523968 -691.70523968 -691.70523968 -691.70523968 -691.70523968 -691.70523968 -691.70523968 -691.70523968 -691.70523968 -691.70523968 -691.70523968
C          0.82167       -0.14449        0.14290
O          0.14366        0.58594       -0.63687
O          0.42420       -1.13818        0.83508
C          2.38444        0.03457        0.07774
C          3.05961        1.20298        0.04834
C          2.42217        2.59294        0.22597
O          2.83569        3.43917       -0.63575
O          1.80823        2.79806        1.31018
C          4.55154        1.26774       -0.15184
O          4.80355        1.67090       -1.51269
C          5.30217       -0.06544        0.12885
O          5.86179       -0.08305        1.45356
C          4.44783       -1.29035        0.02052
C          3.10772       -1.22683       -0.01925
H          4.97986        2.04420        0.49383
H          4.11433        2.36429       -1.65518
H          6.13945       -0.16711       -0.57034
H          5.09546        0.10916        2.02856
H          4.94238       -2.24963       -0.01047
H          2.51173       -2.13293       -0.08957
20 20 20 20 20 20 20 20 20 20 20 20 20 20 20 20 20 20 20 20 20 20 20 20 20 20 20 20 20 20 20 20 20 20 20 20 20 20 20 20 20 20 20 20 20 20 20 20 20 20 20 20 20 20 20
C(=O)([O-])C1(=C(C(=O)[O-])C(O)C(O)C=C1)
InChI=1S/C8H8O6/c9-4-2-1-3(7(11)12)5(6(4)10)8(13)14/h1-2,4,6,9-10H,(H,11,12)(H,13,14)/p-2/t4-,6-/m0/s1
