14
metacyc CIS-CIS-MUCONATE  -347.62243092 -347.62243092 -347.62243092 -347.62243092 -347.62243092 -347.62243092 -347.62243092 -347.62243092 -347.62243092 -347.62243092 -347.62243092 -347.62243092 -347.62243092 -347.62243092 -347.62243092
C          1.04874       -0.02652       -0.32436
H          0.50169       -0.24580        0.59038
C          0.22029        0.25829       -1.47741
H          0.71409        0.48126       -2.42290
C         -1.12173        0.25745       -1.40769
C         -2.06705        0.55719       -2.57249
O         -1.55780        0.86031       -3.68432
O         -3.29495        0.46893       -2.25974
C          2.38659       -0.03501       -0.24004
H          2.81098       -0.24594        0.74212
C          3.49888        0.22028       -1.26346
O          3.23487        0.06671       -2.48037
O          4.61249        0.50185       -0.71984
H         -1.62445        0.03289       -0.47151
14 14 14 14 14 14 14 14 14 14 14 14 14 14 14 14 14 14 14 14 14 14 14 14 14 14 14 14 14 14 14 14 14 14 14 14 14
[CH]([CH]=CC([O-])=O)=[CH]C([O-])=O
InChI=1S/C6H6O4/c7-5(8)3-1-2-4-6(9)10/h1-4H,(H,7,8)(H,9,10)/p-2/b3-1-,4-2-
