21
metacyc CIS-12-DIHYDROXY-ETCETERA-CARBOXYLATE  -168.33056248 -168.33056248 -168.33056248 -168.33056248 -168.33056248 -168.33056248 -168.33056248 -168.33056248 -168.33056248 -168.33056248 -168.33056248 -168.33056248 -168.33056248 -168.33056248 -168.33056248
C          0.81257       -0.05614       -0.05684
C          2.30353        0.07741       -0.06052
C          2.92004        1.27193       -0.04607
C          4.41458        1.45278       -0.05457
O          4.66536        2.26848       -1.22753
C          5.23560        0.13320       -0.14458
C          4.41085       -1.14089       -0.10522
C          3.06968       -1.14841       -0.06602
O          5.91621        0.15878       -1.44894
C          6.27085       -0.00003        1.04966
O          5.98285        0.60314        2.12703
O          7.26261       -0.76243        0.81899
H          0.31233        0.91880       -0.04639
H          0.46071       -0.61073        0.83295
H          0.47155       -0.59241       -0.94887
H          2.34320        2.19027       -0.03105
H          4.69385        2.06943        0.80340
H          5.37589        1.76570       -1.68403
H          4.95913       -2.08012       -0.07083
H          2.53509       -2.08858       -0.01695
H          5.85663       -0.74531       -1.79589
21 21 21 21 21 21 21 21 21 21 21 21 21 21 21 21 21 21 21 21 21 21 21 21 21 21 21 21 21 21 21 21 21 21 21 21 21 21 21 21 21 21 21 21 21 21 21 21 21 21 21 21 21 21 21 21 21 21
CC1(=CC(O)C(C=C1)(O)C([O-])=O)
InChI=1S/C8H10O4/c1-5-2-3-8(12,7(10)11)6(9)4-5/h2-4,6,9,12H,1H3,(H,10,11)/p-1
