18
metacyc CIT  -965.21917728 -965.21917728 -965.21917728 -965.21917728 -965.21917728 -965.21917728 -965.21917728 -965.21917728 -965.21917728 -965.21917728 -965.21917728 -965.21917728 -965.21917728 -965.21917728 -965.21917728
C          2.75479       -1.55836       -0.12291
O          3.79191       -1.97386       -0.72075
O          1.78596       -2.27642        0.29428
C          2.54284       -0.04011       -0.04262
C          3.07150        0.78021        1.15820
C          2.49457        2.28782        1.18045
O          2.93070        3.04451        2.11112
O          1.47485        2.52111        0.45036
O          2.50874        0.13812        2.36484
C          4.59158        0.75391        1.33443
C          5.55192        1.44656        0.35973
O          5.07672        2.03956       -0.64871
O          6.78551        1.35469        0.68167
H          1.45059        0.08537       -0.08695
H          2.91586        0.40257       -0.97423
H          1.56734        0.37959        2.31093
H          4.91537       -0.29266        1.41798
H          4.82368        1.18433        2.32015
18 18 18 18 18 18 18 18 18 18 18 18 18 18 18 18 18 18 18 18 18 18 18 18 18 18 18 18 18 18 18 18 18 18 18 18 18 18 18 18 18 18 18 18 18 18 18 18 18
C(=O)([O-])CC(C(=O)[O-])(O)CC(=O)[O-]
InChI=1S/C6H8O7/c7-3(8)1-6(13,5(11)12)2-4(9)10/h13H,1-2H2,(H,7,8)(H,9,10)(H,11,12)/p-3
