19
metacyc COUMARATE  -0.68708710784 -0.68708710784 -0.68708710784 -0.68708710784 -0.68708710784 -0.68708710784 -0.68708710784 -0.68708710784 -0.68708710784 -0.68708710784 -0.68708710784 -0.68708710784 -0.68708710784 -0.68708710784 -0.68708710784
C          0.91676        0.12547       -0.10147
O          0.39346        0.90761       -0.94136
O          0.36945       -0.63214        0.74900
C          2.44463        0.05621       -0.09313
C          3.21138        0.80033       -0.90612
C          4.67865        0.73372       -0.95104
C          5.33328        0.99013       -2.16406
C          6.72658        0.91277       -2.25561
C          7.46953        0.59154       -1.12395
O          8.82741        0.47311       -1.17781
C          6.84476        0.37524        0.09674
C          5.45226        0.45126        0.18327
H          2.86870       -0.65668        0.60632
H          2.72846        1.47590       -1.60990
H          4.75239        1.23258       -3.05136
H          7.20347        1.10148       -3.21113
H          9.09174        0.51647       -2.11061
H          7.43041        0.13815        0.97893
H          4.97179        0.28364        1.14415
19 19 19 19 19 19 19 19 19 19 19 19 19 19 19 19 19 19 19 19 19 19 19 19 19 19 19 19 19 19 19 19 19 19 19 19 19 19 19 19 19 19 19 19 19 19 19 19 19 19 19 19
C(=O)([O-])C=CC1(=CC=C(O)C=C1)
InChI=1S/C9H8O3/c10-8-4-1-7(2-5-8)3-6-9(11)12/h1-6,10H,(H,11,12)/p-1/b6-3+
