19
metacyc CPD-376  -242.554751768 -242.554751768 -242.554751768 -242.554751768 -242.554751768 -242.554751768 -242.554751768 -242.554751768 -242.554751768 -242.554751768 -242.554751768 -242.554751768 -242.554751768 -242.554751768 -242.554751768
C          0.89059        0.01635       -0.08112
C          2.42818       -0.01942       -0.02241
C          2.94679        1.27440        0.59618
H          4.04226        1.41951        0.58153
O          2.24097        2.09727        1.18361
C          2.85868       -1.16822        0.90171
C          2.99715       -0.18078       -1.44748
O          2.59659        0.95893       -2.25700
C          4.55074       -0.28395       -1.47580
O          5.04075       -1.43195       -1.31781
O          5.11523        0.83864       -1.65389
H          0.45599        0.11605        0.92028
H          0.49212       -0.90417       -0.52499
H          0.52612        0.86141       -0.67446
H          2.40167       -1.06569        1.89288
H          3.94190       -1.17998        1.06468
H          2.56245       -2.14018        0.49273
H          2.57788       -1.07042       -1.93211
H          3.44146        1.46636       -2.34054
19 19 19 19 19 19 19 19 19 19 19 19 19 19 19 19 19 19 19 19 19 19 19 19 19 19 19 19 19 19 19 19 19 19 19 19 19 19 19 19 19 19 19 19 19 19 19 19 19 19 19 19
CC([CH]=O)(C)C(O)C([O-])=O
InChI=1S/C6H10O4/c1-6(2,3-7)4(8)5(9)10/h3-4,8H,1-2H3,(H,9,10)/p-1/t4-/m0/s1
