17
metacyc CPD-277  -655.14645184 -655.14645184 -655.14645184 -655.14645184 -655.14645184 -655.14645184 -655.14645184 -655.14645184 -655.14645184 -655.14645184 -655.14645184 -655.14645184 -655.14645184 -655.14645184 -655.14645184
C          0.88351       -0.65848       -2.38544
O          0.28240       -0.75808       -1.27944
O          0.44157       -0.84478       -3.55606
C          2.36127       -0.29543       -2.32830
C          2.98716       -0.03791       -1.17013
C          4.45589        0.23045       -1.12207
C          5.15184       -0.04366        0.18583
C          5.31835        1.14802        1.08134
C          6.16112        0.95259        2.34883
O          6.23038        1.90665        3.18773
O          6.72625       -0.18524        2.45792
O          4.80708        2.25109        0.89265
O          5.07973        0.58374       -2.12433
H          2.89983       -0.27300       -3.27029
H          2.45775       -0.07541       -0.22345
H          6.13919       -0.45275       -0.05848
H          4.60508       -0.81989        0.73236
17 17 17 17 17 17 17 17 17 17 17 17 17 17 17 17 17 17 17 17 17 17 17 17 17 17 17 17 17 17 17 17 17 17 17 17 17 17 17 17 17 17 17 17 17 17
C([O-])(=O)C=CC(CC(C([O-])=O)=O)=O
InChI=1S/C7H6O6/c8-4(1-2-6(10)11)3-5(9)7(12)13/h1-2H,3H2,(H,10,11)(H,12,13)/p-2/b2-1+
