14
metacyc CPD-17104  -138.504136072 -138.504136072 -138.504136072 -138.504136072 -138.504136072 -138.504136072 -138.504136072 -138.504136072 -138.504136072 -138.504136072 -138.504136072 -138.504136072 -138.504136072 -138.504136072 -138.504136072
C          1.01561        0.06976        0.03336
O          0.52574       -0.70909       -1.04125
O          0.48458       -0.40901        1.25456
C          2.49412       -0.08094        0.04763
O          3.23097        1.06697        0.03179
C          4.53784        0.69964        0.02961
C          4.65716       -0.66806        0.04167
C          3.33629       -1.17859        0.05202
H          0.70327        1.10981       -0.10021
H          1.00361       -0.40726       -1.82804
H          1.19385       -0.86843        1.72860
H          5.25371        1.51537        0.01625
H          5.58115       -1.22890        0.03722
H          3.02544       -2.21568        0.05105
14 14 14 14 14 14 14 14 14 14 14 14 14 14 14 14 14 14 14 14 14 14 14 14 14 14 14 14 14 14 14 14 14 14 14 14 14
C(O)(O)C1(OC=CC=1)
InChI=1S/C5H6O3/c6-5(7)4-2-1-3-8-4/h1-3,5-7H
