15
metacyc CPD-8130  -113.944051888 -113.944051888 -113.944051888 -113.944051888 -113.944051888 -113.944051888 -113.944051888 -113.944051888 -113.944051888 -113.944051888 -113.944051888 -113.944051888 -113.944051888 -113.944051888 -113.944051888
C         -1.35349       -0.04866       -0.01015
C         -0.71723        1.19508       -0.02975
C          0.67191        1.24033       -0.06079
C          1.41672        0.06148       -0.06966
C          0.79385       -1.17843       -0.05063
C         -0.59686       -1.22053       -0.02235
O         -1.26960       -2.40724       -0.00716
O          2.78158        0.11975       -0.09890
O          1.35630        2.42402       -0.08464
H         -2.43847       -0.10826        0.01348
H         -1.31630        2.09920       -0.02090
H          1.39603       -2.07944       -0.05822
H         -0.61917       -3.12878       -0.03625
H          2.98434        1.07675       -0.10792
H          0.70574        3.14742       -0.08568
15 15 15 15 15 15 15 15 15 15 15 15 15 15 15 15 15 15 15 15 15 15 15 15 15 15 15 15 15 15 15 15 15 15 15 15 15 15 15 15
C1(C=C(C(=CC(O)=1)O)O)
InChI=1S/C6H6O3/c7-4-1-2-5(8)6(9)3-4/h1-3,7-9H
