18
metacyc CPD-16721  -21.217193704 -21.217193704 -21.217193704 -21.217193704 -21.217193704 -21.217193704 -21.217193704 -21.217193704 -21.217193704 -21.217193704 -21.217193704 -21.217193704 -21.217193704 -21.217193704 -21.217193704
C          1.07850        0.06907        0.01949
O          0.52512        1.24629       -0.56894
C          2.57511        0.07000       -0.11963
C          3.34328        1.24259       -0.09989
O          2.77339        2.48090        0.00701
C          4.73337        1.20262       -0.19318
C          5.38839       -0.02299       -0.29958
C          4.63928       -1.19400       -0.30222
O          5.23403       -2.41758       -0.39406
C          3.25020       -1.15729       -0.20715
H          0.62595       -0.79930       -0.46997
H          0.80684        0.05681        1.08000
H          0.54337        1.09438       -1.53284
H          1.80075        2.36085       -0.03705
H          5.30173        2.12870       -0.18269
H          6.47041       -0.04176       -0.37417
H          6.19533       -2.28983       -0.45394
H          2.69985       -2.09506       -0.19820
18 18 18 18 18 18 18 18 18 18 18 18 18 18 18 18 18 18 18 18 18 18 18 18 18 18 18 18 18 18 18 18 18 18 18 18 18 18 18 18 18 18 18 18 18 18 18 18 18
C(O)C1(=C(O)C=CC(O)=C1)
InChI=1S/C7H8O3/c8-4-5-3-6(9)1-2-7(5)10/h1-3,8-10H,4H2
