15
metacyc CPD-9127  -92.56851052 -92.56851052 -92.56851052 -92.56851052 -92.56851052 -92.56851052 -92.56851052 -92.56851052 -92.56851052 -92.56851052 -92.56851052 -92.56851052 -92.56851052 -92.56851052 -92.56851052
C         -0.75586        1.17164       -0.01328
C          0.63934        1.23027       -0.03085
C          1.37881        0.04969       -0.06077
C          0.75278       -1.19171       -0.07077
C         -0.64517       -1.24392       -0.05548
C         -1.40500       -0.06512       -0.02668
N         -1.32331       -2.54459       -0.07330
O         -0.62047       -3.56467       -0.09708
O         -2.56313       -2.54738       -0.06440
O          2.74157        0.06882       -0.08417
H         -1.33848        2.08993        0.00986
H          1.12921        2.19974       -0.02013
H          1.35857       -2.09412       -0.09259
H         -2.49268       -0.09352       -0.01513
H          3.04725        0.99102       -0.10664
15 15 15 15 15 15 15 15 15 15 15 15 15 15 15 15 15 15 15 15 15 15 15 15 15 15 15 15 15 15 15 15 15 15 15 15 15 15 15 15
C1(=CC(=CC(=C1)[N+](=O)[O-])O)
InChI=1S/C6H5NO3/c8-6-3-1-2-5(4-6)7(9)10/h1-4,8H
