29
metacyc CPD-19753  -668.46722 -668.46722 -668.46722 -668.46722 -668.46722 -668.46722 -668.46722 -668.46722 -668.46722 -668.46722 -668.46722 -668.46722 -668.46722 -668.46722 -668.46722
C          0.75229       -0.00175       -0.13925
C          0.37573        0.38199        1.30198
C          0.71485        1.84052        1.69161
C          0.30392        2.17775        3.14646
C          0.73446        3.59160        3.57745
C          0.03886        4.71139        2.79182
O          0.48956        5.97698        3.28988
O          0.37643        3.77043        4.96998
O         -1.10768        2.08646        3.39709
O          2.11995        2.06774        1.52344
O         -0.97731        0.03850        1.59922
C          0.31660        0.88100       -1.28596
O          1.00419        0.98519       -2.30372
C         -1.06389        1.56834       -1.30607
O         -1.41942        2.19874       -2.34731
O         -1.74658        1.44248       -0.23481
H          0.38108       -1.00987       -0.35824
H          1.84808       -0.03834       -0.19589
H          0.97738       -0.27306        1.94699
H          0.18632        2.52239        1.02225
H          0.78249        1.46162        3.82727
H          1.82114        3.71376        3.52418
H         -1.04698        4.68252        2.93296
H          0.26143        4.66962        1.72365
H          0.55001        5.85361        4.25754
H         -0.50601        3.34616        5.04061
H         -1.49652        1.54497        2.67521
H          2.60145        1.39938        2.04092
H         -1.52750        0.49403        0.90049
29 29 29 29 29 29 29 29 29 29 29 29 29 29 29 29 29 29 29 29 29 29 29 29 29 29 29 29 29 29 29 29 29 29 29 29 29 29 29 29 29 29 29 29 29 29 29 29 29 29 29 29 29 29 29 29 29 29 29 29 29 29 29 29 29 29 29 29 29 29 29 29 29 29 29 29 29 29 29 29 29 29
C(C(C(C(C(CO)O)O)O)O)C(=O)C([O-])=O
InChI=1S/C8H14O8/c9-2-5(12)7(14)6(13)3(10)1-4(11)8(15)16/h3,5-7,9-10,12-14H,1-2H2,(H,15,16)/p-1/t3-,5-,6-,7-/m1/s1
