23
metacyc CPD-15589  -246.00480704 -246.00480704 -246.00480704 -246.00480704 -246.00480704 -246.00480704 -246.00480704 -246.00480704 -246.00480704 -246.00480704 -246.00480704 -246.00480704 -246.00480704 -246.00480704 -246.00480704
C          1.01209       -0.04478        0.17871
C          2.52283       -0.12545       -0.01978
O          2.94056       -1.44925       -0.38054
C          2.56819       -1.86360       -1.69612
O          3.12155       -3.15436       -1.91551
C          3.08363       -0.89995       -2.78519
O          4.52525       -1.00531       -2.86359
C          2.65718        0.53658       -2.45379
O          3.24682        1.45606       -3.37835
C          3.07845        0.90029       -1.02218
O          4.52525        0.87129       -0.97844
H          0.68554       -0.81151        0.89049
H          0.45438       -0.22053       -0.74464
H          0.72219        0.93630        0.56866
H          2.98826        0.06363        0.95511
H          1.48201       -1.96204       -1.74660
H          4.02597       -2.98133       -2.24343
H          2.71670       -1.20145       -3.77185
H          4.87668       -0.53053       -2.07848
H          1.57204        0.63133       -2.56096
H          4.21371        1.34784       -3.27478
H          2.77365        1.92195       -0.77299
H          4.79158        0.85229       -0.03953
23 23 23 23 23 23 23 23 23 23 23 23 23 23 23 23 23 23 23 23 23 23 23 23 23 23 23 23 23 23 23 23 23 23 23 23 23 23 23 23 23 23 23 23 23 23 23 23 23 23 23 23 23 23 23 23 23 23 23 23 23 23 23 23
CC1(OC(O)C(O)C(O)C(O)1)
InChI=1S/C6H12O5/c1-2-3(7)4(8)5(9)6(10)11-2/h2-10H,1H3/t2-,3+,4+,5+,6?/m0/s1
