13
metacyc CPD-14078  -3.0727312736 -3.0727312736 -3.0727312736 -3.0727312736 -3.0727312736 -3.0727312736 -3.0727312736 -3.0727312736 -3.0727312736 -3.0727312736 -3.0727312736 -3.0727312736 -3.0727312736 -3.0727312736 -3.0727312736
C          0.12529       -1.28210       -0.06682
N          1.29791       -0.61063       -0.14360
C          1.18658        0.72630       -0.14601
O          2.37215        1.38912       -0.22332
C         -0.00105        1.43671       -0.07788
O         -0.02519        2.79845       -0.08631
C         -1.18328        0.72357        0.00016
C         -1.12230       -0.66913        0.00597
H          0.21163       -2.36560       -0.06495
H          2.97729        0.62462       -0.25437
H          0.91184        3.07244       -0.14710
H         -2.13547        1.24088        0.05542
H         -2.02706       -1.26436        0.06587
13 13 13 13 13 13 13 13 13 13 13 13 13 13 13 13 13 13 13 13 13 13 13 13 13 13 13 13 13 13 13 13 13 13
C1(=NC(O)=C(O)C=C1)
InChI=1S/C5H5NO2/c7-4-2-1-3-6-5(4)8/h1-3,7H,(H,6,8)
