14
metacyc CPD-20866  -125.896191808 -125.896191808 -125.896191808 -125.896191808 -125.896191808 -125.896191808 -125.896191808 -125.896191808 -125.896191808 -125.896191808 -125.896191808 -125.896191808 -125.896191808 -125.896191808 -125.896191808
C          0.87408       -0.06617       -0.08405
C          0.33701        0.83535       -1.19063
N         -1.12372        0.84400       -1.17782
C          2.39729       -0.09761       -0.09509
O          2.90634        1.23915        0.14154
C          2.92530       -1.05281        1.01706
O          2.59223       -2.26455        0.92246
O          3.65342       -0.46164        1.87600
H          0.47374       -1.08040       -0.20188
H          0.52306        0.30838        0.88654
H          0.67651        0.47865       -2.16847
H          0.69290        1.86236       -1.06884
H          2.78693       -0.43304       -1.06307
H          3.44151        1.10309        0.96546
14 14 14 14 14 14 14 14 14 14 14 14 14 14 14 14 14 14 14 14 14 14 14 14 14 14 14 14 14 14 14 14 14 14 14 14 14
C(C[N+])C(O)C([O-])=O
InChI=1S/C4H9NO3/c5-2-1-3(6)4(7)8/h3,6H,1-2,5H2,(H,7,8)
