22
metacyc CPD-16810  -421.834453136 -421.834453136 -421.834453136 -421.834453136 -421.834453136 -421.834453136 -421.834453136 -421.834453136 -421.834453136 -421.834453136 -421.834453136 -421.834453136 -421.834453136 -421.834453136 -421.834453136
C          2.20789       -1.56617        0.01516
O          2.88333       -2.29753       -0.77155
O          1.33236       -1.89363        0.87093
C          2.53453       -0.07580       -0.04126
N          2.12995        0.68745        0.94050
C          3.31637        0.45910       -1.20998
C          4.82553        0.27161       -1.02323
O          5.22252       -1.10023       -0.93017
C          5.60159        0.88574       -2.20980
O          5.28278        2.27198       -2.39598
C          7.12631        0.72545       -2.03628
O          7.83298        1.27807       -3.15089
H          1.60909        0.02948        1.56495
H          3.06932        1.52156       -1.31689
H          2.97475       -0.05481       -2.11552
H          5.12889        0.76665       -0.09213
H          4.41669       -1.67972       -0.94599
H          5.30986        0.37720       -3.13644
H          5.69589        2.76128       -1.66421
H          7.41050       -0.32520       -1.95341
H          7.47164        1.25480       -1.14580
H          7.35465        0.99685       -3.95052
22 22 22 22 22 22 22 22 22 22 22 22 22 22 22 22 22 22 22 22 22 22 22 22 22 22 22 22 22 22 22 22 22 22 22 22 22 22 22 22 22 22 22 22 22 22 22 22 22 22 22 22 22 22 22 22 22 22 22 22 22
C([O-])(=O)C(=N)CC(O)C(O)CO
InChI=1S/C6H11NO5/c7-3(6(11)12)1-4(9)5(10)2-8/h4-5,7-10H,1-2H2,(H,11,12)/p-1/t4-,5+/m0/s1
