19
metacyc CPD-13131  -337.61131136 -337.61131136 -337.61131136 -337.61131136 -337.61131136 -337.61131136 -337.61131136 -337.61131136 -337.61131136 -337.61131136 -337.61131136 -337.61131136 -337.61131136 -337.61131136 -337.61131136
C          1.10640        0.01117        0.00080
C          0.57743        0.76925       -1.23362
C         -0.52107        1.77645       -0.88575
C          0.09934        2.95500       -0.16695
C          1.33844        3.52323       -0.81818
C          2.27991        2.46673       -1.35160
O          1.61341        1.39783       -2.00432
O          1.54376        4.72650       -0.83079
O         -0.34424        3.41793        0.87537
O         -1.54403        1.14936       -0.11986
O          2.18597       -0.85095       -0.34506
H          0.31525       -0.59567        0.45386
H          1.47972        0.69704        0.76685
H          0.14598        0.01113       -1.89951
H         -0.97493        2.17282       -1.80144
H          2.89491        2.09273       -0.52575
H          2.94494        2.93803       -2.08035
H         -1.68403        1.69414        0.68312
H          1.94737       -1.31970       -1.16433
19 19 19 19 19 19 19 19 19 19 19 19 19 19 19 19 19 19 19 19 19 19 19 19 19 19 19 19 19 19 19 19 19 19 19 19 19 19 19 19 19 19 19 19 19 19 19 19 19 19 19 19
C(C1(C(C(C(CO1)=O)=O)O))O
InChI=1S/C6H8O5/c7-1-4-6(10)5(9)3(8)2-11-4/h4,6-7,10H,1-2H2/t4-,6-/m1/s1
