17
metacyc CPD-5062  -368.28672576 -368.28672576 -368.28672576 -368.28672576 -368.28672576 -368.28672576 -368.28672576 -368.28672576 -368.28672576 -368.28672576 -368.28672576 -368.28672576 -368.28672576 -368.28672576 -368.28672576
C          1.48413       -0.27966        0.09152
C          0.45573       -1.37650        0.00515
C         -0.86312       -1.10415       -0.08297
N         -1.27300        0.22814       -0.09230
C         -0.41397        1.32644       -0.08542
C          0.91424        1.11058        0.00303
C         -0.97407        2.81121       -0.18959
O         -2.23853        2.91095       -0.23255
O         -0.10474        3.73782       -0.22206
C         -1.91600       -2.29034       -0.18235
O         -1.43461       -3.46648       -0.20935
O         -3.13247       -1.93192       -0.22697
H          2.20873       -0.41441       -0.71944
H          2.02759       -0.37891        1.03805
H          0.79631       -2.40555        0.00983
H         -2.27328        0.41316       -0.18831
H          1.59974        1.95087        0.00502
17 17 17 17 17 17 17 17 17 17 17 17 17 17 17 17 17 17 17 17 17 17 17 17 17 17 17 17 17 17 17 17 17 17 17 17 17 17 17 17 17 17 17 17 17 17
C1(C=C(NC(=C1)C(=O)[O-])C(=O)[O-])
InChI=1S/C7H7NO4/c9-6(10)4-2-1-3-5(8-4)7(11)12/h2-3,8H,1H2,(H,9,10)(H,11,12)/p-2
