29
metacyc CPD-9397  -65.320865316 -65.320865316 -65.320865316 -65.320865316 -65.320865316 -65.320865316 -65.320865316 -65.320865316 -65.320865316 -65.320865316 -65.320865316 -65.320865316 -65.320865316 -65.320865316 -65.320865316
C          0.75014        0.42741        0.66795
C          2.11650        0.17223        0.04724
O          2.87263        1.36947        0.31980
C          2.93531       -1.05481        0.57046
O          3.12933       -0.90279        1.98914
C          2.37112       -2.46847        0.24073
O          2.28644       -2.66896       -1.17406
C          3.55361       -2.63910       -1.82336
C          4.34373       -1.34152       -1.54093
C          4.35938       -1.02197       -0.04622
O          5.69498       -1.43543       -2.00204
O          4.32657       -3.79236       -1.49613
C          1.02425       -2.84241        0.84769
H          0.38109        1.41522        0.35796
H          0.79300        0.45226        1.75991
H          0.00504       -0.29799        0.35011
H          1.99220        0.11952       -1.03733
H          3.26408        1.25196        1.20831
H          2.26744       -0.98040        2.43366
H          3.06651       -3.21128        0.65734
H          3.36775       -2.70839       -2.90050
H          3.86958       -0.51304       -2.07767
H          4.86112       -0.06242        0.12858
H          5.00628       -1.73902        0.48064
H          5.84430       -2.34771       -2.31350
H          4.81766       -3.60475       -0.67954
H          0.19463       -2.31222        0.38144
H          1.00350       -2.69264        1.93031
H          0.82297       -3.90383        0.65529
29 29 29 29 29 29 29 29 29 29 29 29 29 29 29 29 29 29 29 29 29 29 29 29 29 29 29 29 29 29 29 29 29 29 29 29 29 29 29 29 29 29 29 29 29 29 29 29 29 29 29 29 29 29 29 29 29 29 29 29 29 29 29 29 29 29 29 29 29 29 29 29 29 29 29 29 29 29 29 29 29 29
CC(O)C1(O)(C(OC(C(C1)O)O)C)
InChI=1S/C8H16O5/c1-4(9)8(12)3-6(10)7(11)13-5(8)2/h4-7,9-12H,3H2,1-2H3/t4-,5-,6-,7-,8+/m1/s1
