22
metacyc CPD-17704  -698.94540064 -698.94540064 -698.94540064 -698.94540064 -698.94540064 -698.94540064 -698.94540064 -698.94540064 -698.94540064 -698.94540064 -698.94540064 -698.94540064 -698.94540064 -698.94540064 -698.94540064
C          0.80423        0.13468        0.15431
H          0.37718        0.50000       -0.79028
O          0.05586       -0.18057        1.07815
C          2.33746        0.13955        0.21510
O          2.80609       -0.32012        1.47781
C          2.84809       -0.67251       -1.00350
O          2.35881        0.00086       -2.17238
C          4.39121       -0.86908       -0.98209
O          4.76206       -1.53905        0.25151
C          4.95247       -1.70252       -2.14032
O          4.40103       -3.04656       -2.08296
C          4.71473       -1.09280       -3.53852
O          4.52937        0.15710       -3.56544
O          4.65335       -1.95439       -4.46276
H          2.64197        1.18843        0.11061
H          3.49542       -0.99430        1.30061
H          2.37541       -1.66266       -0.97151
H          3.12235        0.29927       -2.73130
H          4.87630        0.11298       -0.97119
H          5.00626       -2.44977       -0.02035
H          6.03486       -1.82602       -2.01432
H          4.25519       -3.24666       -3.04179
22 22 22 22 22 22 22 22 22 22 22 22 22 22 22 22 22 22 22 22 22 22 22 22 22 22 22 22 22 22 22 22 22 22 22 22 22 22 22 22 22 22 22 22 22 22 22 22 22 22 22 22 22 22 22 22 22 22 22 22 22
[CH](=O)C(O)C(O)C(O)C(O)C(=O)[O-]
InChI=1S/C6H10O7/c7-1-2(8)3(9)4(10)5(11)6(12)13/h1-5,8-11H,(H,12,13)/p-1/t2-,3+,4-,5+/m0/s1
