21
metacyc CPD-18126  -190.38963556 -190.38963556 -190.38963556 -190.38963556 -190.38963556 -190.38963556 -190.38963556 -190.38963556 -190.38963556 -190.38963556 -190.38963556 -190.38963556 -190.38963556 -190.38963556 -190.38963556
C          1.04541        1.88273       -1.42514
H          0.64253        2.51867       -2.23205
O          0.31729        1.34202       -0.60129
C          2.51895        1.75616       -1.42682
C          3.17321        1.09717       -0.45667
C          4.63554        1.01855       -0.37633
C          5.27048       -0.04560        0.16772
C          4.67850       -1.28068        0.72526
H          3.58353       -1.35984        0.71568
O          5.38336       -2.18428        1.16426
C          5.55020        2.03915       -0.91351
C          5.42886        3.38129       -0.99291
O          4.33752        4.10023       -0.52560
C          6.62433        4.18198       -1.64729
O          7.74591        3.58997       -1.62691
O          6.32034        5.31236       -2.12436
H          3.03171        2.27318       -2.23169
H          2.59739        0.61857        0.33285
H          6.35898       -0.06919        0.20775
H          6.48365        1.62984       -1.30942
H          3.82454        3.52130        0.05668
21 21 21 21 21 21 21 21 21 21 21 21 21 21 21 21 21 21 21 21 21 21 21 21 21 21 21 21 21 21 21 21 21 21 21 21 21 21 21 21 21 21 21 21 21 21 21 21 21 21 21 21 21 21 21 21 21 21
[CH](=O)C=CC(=C[CH]=O)C=C(O)C([O-])=O
InChI=1S/C9H8O5/c10-4-1-2-7(3-5-11)6-8(12)9(13)14/h1-6,12H,(H,13,14)/p-1/b2-1+,7-3-,8-6+
