16
metacyc CPD-19877  -519.79606016 -519.79606016 -519.79606016 -519.79606016 -519.79606016 -519.79606016 -519.79606016 -519.79606016 -519.79606016 -519.79606016 -519.79606016 -519.79606016 -519.79606016 -519.79606016 -519.79606016
C          0.87335       -0.20540       -0.05033
O          0.19789        0.92489       -0.61523
C          2.40873       -0.10920       -0.14710
O          2.75587        0.17773       -1.52504
C          3.03186        0.97932        0.72453
O          2.53418        2.28043        0.29070
C          2.71244        0.73431        2.21701
O          3.00462       -0.40136        2.67236
O          2.18254        1.74178        2.78273
H          0.53091       -1.07406       -0.62169
H          0.53342       -0.32914        0.98177
H          0.90334        1.51168       -0.94983
H          2.84040       -1.08371        0.10051
H          2.97028        1.13172       -1.53368
H          4.11681        1.01047        0.58901
H          2.15306        2.62980        1.14118
16 16 16 16 16 16 16 16 16 16 16 16 16 16 16 16 16 16 16 16 16 16 16 16 16 16 16 16 16 16 16 16 16 16 16 16 16 16 16 16 16 16 16
C(O)C(O)C(O)C([O-])=O
InChI=1S/C4H8O5/c5-1-2(6)3(7)4(8)9/h2-3,5-7H,1H2,(H,8,9)/p-1/t2-,3-/m1/s1
