18
metacyc CPD-14964  -363.55211136 -363.55211136 -363.55211136 -363.55211136 -363.55211136 -363.55211136 -363.55211136 -363.55211136 -363.55211136 -363.55211136 -363.55211136 -363.55211136 -363.55211136 -363.55211136 -363.55211136
C          2.11125        1.11868        0.68538
H          1.67447        1.97514        0.14870
O          2.21867        1.05599        1.89980
C          2.52583       -0.02288       -0.21034
O          2.23085        0.01720       -1.40385
C          3.27746       -1.17627        0.42448
O          3.02733       -2.37382       -0.32444
C          4.78165       -0.87864        0.41971
O          5.05428        0.32815        1.13749
C          5.57807       -2.05143        1.01565
O          6.96517       -1.72062        1.07833
H          2.90221       -1.33815        1.43910
H          3.00798       -2.11970       -1.26935
H          5.13228       -0.71177       -0.60632
H          5.53384        0.09126        1.95566
H          5.46356       -2.96622        0.42596
H          5.25617       -2.25467        2.04203
H          7.26221       -1.51749        0.17344
18 18 18 18 18 18 18 18 18 18 18 18 18 18 18 18 18 18 18 18 18 18 18 18 18 18 18 18 18 18 18 18 18 18 18 18 18 18 18 18 18 18 18 18 18 18 18 18 18
[CH](=O)C(=O)C(O)C(O)CO
InChI=1S/C5H8O5/c6-1-3(8)5(10)4(9)2-7/h1,4-5,7,9-10H,2H2/t4-,5+/m0/s1
