20
metacyc CPD-10774  -339.6520992 -339.6520992 -339.6520992 -339.6520992 -339.6520992 -339.6520992 -339.6520992 -339.6520992 -339.6520992 -339.6520992 -339.6520992 -339.6520992 -339.6520992 -339.6520992 -339.6520992
C          1.01844        0.09802       -0.07886
C          2.54071        0.06347       -0.04129
O          3.04030        0.21298       -1.37293
O          3.02525        1.15074        0.74959
C          4.35060        0.79104        1.15664
C          4.36247       -0.71417        1.38443
O          5.60207       -1.28597        0.95958
C          3.14587       -1.23204        0.58739
O          2.21318       -1.90625        1.42459
O          3.60733       -2.16455       -0.39591
H          0.66664        1.02437       -0.54511
H          0.58807        0.06748        0.92687
H          0.61971       -0.73323       -0.67022
H          2.64464        1.03870       -1.70342
H          4.60335        1.33904        2.06966
H          5.05920        1.09658        0.37724
H          4.25795       -0.92497        2.45353
H          5.35064       -1.99556        0.32801
H          2.25924       -1.51773        2.31310
H          3.32470       -1.78435       -1.24953
20 20 20 20 20 20 20 20 20 20 20 20 20 20 20 20 20 20 20 20 20 20 20 20 20 20 20 20 20 20 20 20 20 20 20 20 20 20 20 20 20 20 20 20 20 20 20 20 20 20 20 20 20 20 20
CC1(O)(OCC(O)C(O)(O)1)
InChI=1S/C5H10O5/c1-4(7)5(8,9)3(6)2-10-4/h3,6-9H,2H2,1H3/t3-,4+/m0/s1
