22
metacyc CPD-9261  -312.1393704 -312.1393704 -312.1393704 -312.1393704 -312.1393704 -312.1393704 -312.1393704 -312.1393704 -312.1393704 -312.1393704 -312.1393704 -312.1393704 -312.1393704 -312.1393704 -312.1393704
C          0.90571        0.21006        0.01693
O          0.34561        0.76529        1.19980
C          2.39074        0.34096        0.05783
C          3.14595        0.90071       -0.90190
O          2.54689        1.41350       -2.06148
C          3.52665        1.06137       -3.07091
H          3.10901        0.33936       -3.78105
N          4.78222        0.57047       -2.45228
C          5.56012        1.33603       -3.26978
O          6.73243        1.30606       -3.54928
C          4.35603        2.17997       -3.71617
C          4.66520        0.90097       -1.01539
C          5.41182        0.03506        0.01607
O          5.48282       -1.20634       -0.20751
O          5.84143        0.68191        1.02267
H          0.45698        0.72027       -0.83988
H          0.62268       -0.84662       -0.03246
H          0.89379        1.54061        1.42081
H          2.88284       -0.14283        0.90086
H          4.24420        2.28516       -4.79637
H          4.32157        3.15550       -3.22288
H          5.01443        1.93745       -0.88996
22 22 22 22 22 22 22 22 22 22 22 22 22 22 22 22 22 22 22 22 22 22 22 22 22 22 22 22 22 22 22 22 22 22 22 22 22 22 22 22 22 22 22 22 22 22 22 22 22 22 22 22 22 22 22 22 22 22 22 22 22
C(O)C=C2(O[CH]1(N(C(=O)C1)C(C([O-])=O)2))
InChI=1S/C8H9NO5/c10-2-1-4-7(8(12)13)9-5(11)3-6(9)14-4/h1,6-7,10H,2-3H2,(H,12,13)/p-1/b4-1-/t6-,7-/m1/s1
