22
metacyc CPD-9638  -158.03790156 -158.03790156 -158.03790156 -158.03790156 -158.03790156 -158.03790156 -158.03790156 -158.03790156 -158.03790156 -158.03790156 -158.03790156 -158.03790156 -158.03790156 -158.03790156 -158.03790156
C          0.87472       -0.05183       -0.10327
C          2.41725       -0.05592       -0.09724
C          2.90175        1.17360        0.64218
O          2.89904        2.37860       -0.04447
C          3.31418        1.12858        1.90357
C          3.29457       -0.16084        2.62487
O          3.26499       -0.13908        3.85346
C          3.32872       -1.41736        1.80321
C          3.82615       -2.67315        2.47582
C          3.40260       -4.04342        2.00040
O          4.58754       -2.60704        3.45156
C          2.97119       -1.37540        0.48603
O          3.02081       -2.25588       -0.41907
H          0.48696        0.87469       -0.53958
H          0.47142       -0.13396        0.91449
H          0.47502       -0.88415       -0.68908
H          2.76849        0.04960       -1.13885
H          2.67077        2.17925       -0.96900
H          3.62017        2.00715        2.45727
H          2.58871       -4.03308        1.27771
H          3.03648       -4.61100        2.86184
H          4.27109       -4.55503        1.57369
22 22 22 22 22 22 22 22 22 22 22 22 22 22 22 22 22 22 22 22 22 22 22 22 22 22 22 22 22 22 22 22 22 22 22 22 22 22 22 22 22 22 22 22 22 22 22 22 22 22 22 22 22 22 22 22 22 22 22 22 22
CC1(C(O)=CC(=O)C(C(C)=O)=C1[O-])
InChI=1S/C9H10O4/c1-4-6(11)3-7(12)8(5(2)10)9(4)13/h3-4,11,13H,1-2H3/p-1
