22
metacyc CPD-15204  -708.65228064 -708.65228064 -708.65228064 -708.65228064 -708.65228064 -708.65228064 -708.65228064 -708.65228064 -708.65228064 -708.65228064 -708.65228064 -708.65228064 -708.65228064 -708.65228064 -708.65228064
C          0.99248       -0.02296        0.20686
O          0.28613       -0.21641       -0.82467
O          0.63207        0.31881        1.36594
C          2.52306       -0.14804        0.00930
O          2.96623       -1.47419       -0.37801
C          2.55783       -1.86814       -1.68760
O          3.18078       -3.13245       -1.95359
C          3.03644       -0.87370       -2.76777
O          4.49075       -0.97135       -2.85422
C          2.62574        0.56489       -2.42904
O          3.28811        1.48034       -3.32566
C          3.02248        0.90202       -0.98120
O          4.48352        0.92043       -0.93880
H          2.99567        0.02984        0.98508
H          1.48013       -2.03500       -1.72304
H          4.06197       -2.88093       -2.28894
H          2.67180       -1.16682       -3.75744
H          4.81499       -0.52542       -2.04087
H          1.55409        0.69908       -2.59121
H          4.23174        1.41183       -3.08201
H          2.69140        1.91223       -0.71759
H          4.72502        0.77215       -0.00463
22 22 22 22 22 22 22 22 22 22 22 22 22 22 22 22 22 22 22 22 22 22 22 22 22 22 22 22 22 22 22 22 22 22 22 22 22 22 22 22 22 22 22 22 22 22 22 22 22 22 22 22 22 22 22 22 22 22 22 22 22
C([O-])(=O)C1(OC(O)C(O)C(O)C(O)1)
InChI=1S/C6H10O7/c7-1-2(8)4(5(10)11)13-6(12)3(1)9/h1-4,6-9,12H,(H,10,11)/p-1/t1-,2-,3-,4+,6+/m0/s1
