19
metacyc CPD-1088  -509.94290752 -509.94290752 -509.94290752 -509.94290752 -509.94290752 -509.94290752 -509.94290752 -509.94290752 -509.94290752 -509.94290752 -509.94290752 -509.94290752 -509.94290752 -509.94290752 -509.94290752
C          1.03539        0.05815       -0.07384
C          2.57114        0.08133       -0.10677
C          3.08695        0.38628        1.31239
C          3.15855       -1.24368       -0.64572
C          2.82928       -2.49920        0.25017
O          1.80947       -3.15506       -0.14828
O          3.61860       -2.76817        1.20253
O          2.60714       -1.52683       -1.96785
C          3.10649        1.27676       -0.95234
O          2.23485        2.04220       -1.46944
O          4.36668        1.44097       -0.97103
H          0.66229       -0.68955        0.63485
H          0.61024       -0.16969       -1.05711
H          0.62531        1.02524        0.24050
H          2.69385       -0.32665        2.04514
H          2.77907        1.38697        1.64015
H          4.18098        0.34512        1.36909
H          4.24677       -1.18468       -0.76593
H          1.93236       -2.21397       -1.75524
19 19 19 19 19 19 19 19 19 19 19 19 19 19 19 19 19 19 19 19 19 19 19 19 19 19 19 19 19 19 19 19 19 19 19 19 19 19 19 19 19 19 19 19 19 19 19 19 19 19 19 19
CC(C)(C(C([O-])=O)O)C(=O)[O-]
InChI=1S/C6H10O5/c1-6(2,5(10)11)3(7)4(8)9/h3,7H,1-2H3,(H,8,9)(H,10,11)/p-2/t3-/m0/s1
