22
metacyc CPD-13963  -79.314238672 -79.314238672 -79.314238672 -79.314238672 -79.314238672 -79.314238672 -79.314238672 -79.314238672 -79.314238672 -79.314238672 -79.314238672 -79.314238672 -79.314238672 -79.314238672 -79.314238672
C          1.06159        0.06584        0.08171
C          2.57073        0.03867       -0.14120
O          3.03862       -1.26876       -0.51356
C          2.63621       -1.69691       -1.80946
O          3.16235       -2.99465       -2.02092
C          3.13884       -0.75132       -2.89037
C          2.69061        0.67336       -2.59290
O          3.31508        1.56152       -3.52204
C          3.06243        1.07807       -1.15941
O          4.50161        1.17034       -1.09606
H          0.76955       -0.71631        0.79034
H          0.49778       -0.11526       -0.83766
H          0.74683        1.03466        0.48236
H          3.05082        0.24852        0.82245
H          1.54668       -1.79088       -1.84834
H          4.12856       -2.89915       -2.00927
H          2.78921       -1.07049       -3.87958
H          4.23452       -0.79244       -2.95322
H          1.60845        0.75663       -2.74002
H          4.18227        1.79098       -3.12900
H          2.68124        2.07895       -0.93159
H          4.83172        0.29610       -0.81027
22 22 22 22 22 22 22 22 22 22 22 22 22 22 22 22 22 22 22 22 22 22 22 22 22 22 22 22 22 22 22 22 22 22 22 22 22 22 22 22 22 22 22 22 22 22 22 22 22 22 22 22 22 22 22 22 22 22 22 22 22
CC1(OC(O)CC(O)C(O)1)
InChI=1S/C6H12O4/c1-3-6(9)4(7)2-5(8)10-3/h3-9H,2H2,1H3/t3-,4-,5+,6+/m1/s1
