22
metacyc CPD-8651  -362.796296864 -362.796296864 -362.796296864 -362.796296864 -362.796296864 -362.796296864 -362.796296864 -362.796296864 -362.796296864 -362.796296864 -362.796296864 -362.796296864 -362.796296864 -362.796296864 -362.796296864
C          1.09720        0.00469       -0.01708
C          0.25717        0.34433       -1.18259
C         -1.08764        0.40200       -1.20839
C         -1.76935        0.81673       -2.50758
C         -3.30369        0.68700       -2.61549
N         -3.95633        0.57739       -1.30026
C         -3.28628        0.19306       -0.13192
C         -1.94671        0.11361       -0.07665
C         -4.09715       -0.20819        1.19878
O         -3.40939       -0.28130        2.26557
O         -5.33991       -0.39797        1.03775
C         -3.77381       -0.30933       -3.72354
O         -3.03222       -0.38573       -4.75453
O         -4.89846       -0.86753       -3.54322
O          2.32492        0.01077       -0.09525
H          0.58521       -0.24483        0.92246
H          0.82615        0.57827       -2.07647
H         -1.27459        0.28685       -3.33079
H         -1.52614        1.87911       -2.65819
H         -3.65938        1.64550       -3.02272
H         -4.87096        0.10607       -1.35323
H         -1.50600       -0.20699        0.86032
22 22 22 22 22 22 22 22 22 22 22 22 22 22 22 22 22 22 22 22 22 22 22 22 22 22 22 22 22 22 22 22 22 22 22 22 22 22 22 22 22 22 22 22 22 22 22 22 22 22 22 22 22 22 22 22 22 22 22 22 22
C(C=C1(CC(NC(=C1)C(=O)[O-])C([O-])=O))=O
InChI=1S/C9H9NO5/c11-2-1-5-3-6(8(12)13)10-7(4-5)9(14)15/h1-3,7,10H,4H2,(H,12,13)(H,14,15)/p-2/b5-1-/t7-/m0/s1
