22
metacyc CPD-14096  -161.26430948 -161.26430948 -161.26430948 -161.26430948 -161.26430948 -161.26430948 -161.26430948 -161.26430948 -161.26430948 -161.26430948 -161.26430948 -161.26430948 -161.26430948 -161.26430948 -161.26430948
C         -0.70917        1.09426        0.03299
C          0.68074        1.11890        0.01936
C          1.36666        2.43779       -0.02578
C          2.68890        2.57157       -0.76815
C          3.76171        3.29667        0.02957
C          4.33094        2.50221        1.20459
O          5.25935        3.08304        1.83007
O          3.83812        1.35337        1.38358
O          0.76226        3.42540        0.39912
C          1.34283       -0.10768        0.02714
C          0.60116       -1.29064        0.02779
C         -0.78150       -1.19938        0.01107
O         -1.56019       -2.31909       -0.01930
N         -1.45979       -0.04070        0.01210
H         -1.28492        2.01584        0.04447
H          2.46569        3.15393       -1.67173
H          3.05533        1.60508       -1.12307
H          3.38267        4.25260        0.40850
H          4.60063        3.52023       -0.64170
H          2.42815       -0.15948        0.07114
H          1.11388       -2.24459        0.05069
H         -0.96783       -3.08320       -0.03554
22 22 22 22 22 22 22 22 22 22 22 22 22 22 22 22 22 22 22 22 22 22 22 22 22 22 22 22 22 22 22 22 22 22 22 22 22 22 22 22 22 22 22 22 22 22 22 22 22 22 22 22 22 22 22 22 22 22 22 22 22
C1(=C(C(CCC(=O)[O-])=O)C=CC(O)=N1)
InChI=1S/C9H9NO4/c11-7(2-4-9(13)14)6-1-3-8(12)10-5-6/h1,3,5H,2,4H2,(H,10,12)(H,13,14)/p-1
