23
metacyc CPD-13293  -246.00480704 -246.00480704 -246.00480704 -246.00480704 -246.00480704 -246.00480704 -246.00480704 -246.00480704 -246.00480704 -246.00480704 -246.00480704 -246.00480704 -246.00480704 -246.00480704 -246.00480704
C          0.86761        0.31780        0.14762
C          2.37558        0.12440       -0.02419
C          2.78045       -1.33360       -0.30176
O          2.11980       -2.23295        0.59048
C          2.47695       -1.72540       -1.75371
O          3.05192       -3.01810       -2.00480
C          3.02582       -0.69185       -2.73789
O          4.47363       -0.72121       -2.68730
C          2.52268        0.70855       -2.35461
O          3.09433        1.68087       -3.21789
O          2.91718        1.01110       -1.01777
H          0.49576       -0.23674        1.01564
H          0.30576       -0.02157       -0.72776
H          0.63162        1.37709        0.28793
H          2.83426        0.42135        0.92724
H          3.85513       -1.44792       -0.12244
H          2.17335       -3.11560        0.17295
H          1.39404       -1.84095       -1.88959
H          3.97364       -2.85294       -2.29251
H          2.75817       -0.94697       -3.76728
H          4.74237       -0.13523       -1.94975
H          1.43637        0.78569       -2.45840
H          3.97410        1.34968       -3.46949
23 23 23 23 23 23 23 23 23 23 23 23 23 23 23 23 23 23 23 23 23 23 23 23 23 23 23 23 23 23 23 23 23 23 23 23 23 23 23 23 23 23 23 23 23 23 23 23 23 23 23 23 23 23 23 23 23 23 23 23 23 23 23 23
CC1(C(O)C(O)C(O)C(O)O1)
InChI=1S/C6H12O5/c1-2-3(7)4(8)5(9)6(10)11-2/h2-10H,1H3/t2-,3+,4+,5-,6-/m1/s1
