21
metacyc CPD-20330  -215.64695824 -215.64695824 -215.64695824 -215.64695824 -215.64695824 -215.64695824 -215.64695824 -215.64695824 -215.64695824 -215.64695824 -215.64695824 -215.64695824 -215.64695824 -215.64695824 -215.64695824
C          2.84615       -0.47236       -1.44181
C          2.43994        0.07417       -0.07411
C          3.13733        1.39841        0.30146
N          4.60334        1.24606        0.39051
C          5.27197        0.79927        1.49300
O          4.73596        0.39892        2.52154
C          6.76821        0.78469        1.32615
C          2.74125        2.48781       -0.74232
O          1.49979        2.64723       -0.91770
O          3.72810        3.05943       -1.30296
O          1.00968        0.18344       -0.02912
H          3.92088       -0.67540       -1.48925
H          2.58609        0.21922       -2.24969
H          2.31162       -1.40538       -1.65201
H          2.70303       -0.68329        0.67365
H          2.77203        1.73766        1.27867
H          5.07450        1.80729       -0.31916
H          7.07949        1.26124        0.39190
H          7.10949       -0.25348        1.31691
H          7.23004        1.32000        2.15938
H          0.80696        1.07314       -0.41859
21 21 21 21 21 21 21 21 21 21 21 21 21 21 21 21 21 21 21 21 21 21 21 21 21 21 21 21 21 21 21 21 21 21 21 21 21 21 21 21 21 21 21 21 21 21 21 21 21 21 21 21 21 21 21 21 21 21
CC(C(NC(=O)C)C(=O)[O-])O
InChI=1S/C6H11NO4/c1-3(8)5(6(10)11)7-4(2)9/h3,5,8H,1-2H3,(H,7,9)(H,10,11)/p-1/t3-,5+/m1/s1
