19
metacyc CPD-6364  -91.46709344 -91.46709344 -91.46709344 -91.46709344 -91.46709344 -91.46709344 -91.46709344 -91.46709344 -91.46709344 -91.46709344 -91.46709344 -91.46709344 -91.46709344 -91.46709344 -91.46709344
C          2.37878       -0.70972       -0.09952
C          2.38468        0.68641       -0.06863
C          1.18165        1.39121       -0.01176
C         -0.02704        0.69896        0.00428
O         -1.16636        1.45385        0.10875
C         -2.33068        0.76304       -0.32438
C         -2.43394       -0.72285        0.12482
N         -1.23866       -1.39657        0.10654
C         -0.03141       -0.70195       -0.00742
C          1.16954       -1.40815       -0.06147
O         -3.48474       -1.27399        0.44510
O         -3.48284        1.51114        0.04740
H          3.31927       -1.25372       -0.14140
H          3.32847        1.22689       -0.08050
H          1.18669        2.47744        0.02556
H         -2.32332        0.75080       -1.42234
H         -1.25551       -2.38962        0.29550
H          1.18163       -2.49432       -0.07049
H         -3.77079        1.14241        0.89946
19 19 19 19 19 19 19 19 19 19 19 19 19 19 19 19 19 19 19 19 19 19 19 19 19 19 19 19 19 19 19 19 19 19 19 19 19 19 19 19 19 19 19 19 19 19 19 19 19 19 19 19
C1(C=CC2(OC(C(NC(C=1)=2)=O)O))
InChI=1S/C8H7NO3/c10-7-8(11)12-6-4-2-1-3-5(6)9-7/h1-4,8,11H,(H,9,10)
