16
metacyc CPD-17103  -528.50806864 -528.50806864 -528.50806864 -528.50806864 -528.50806864 -528.50806864 -528.50806864 -528.50806864 -528.50806864 -528.50806864 -528.50806864 -528.50806864 -528.50806864 -528.50806864 -528.50806864
C          1.11068        0.04347        0.01235
O          0.56334        1.18652       -0.03410
O          0.51623       -1.08090        0.03834
C          2.59897        0.01064        0.04084
O          3.42278        1.10946        0.01806
C          4.70846        0.66413        0.05380
C          5.76176        1.71286        0.03154
O          6.53532        1.59244        1.21379
O          6.58200        1.47215       -1.09949
C          4.72971       -0.71539        0.10083
C          3.37898       -1.13342        0.09258
H          5.34782        2.72319       -0.02766
H          5.92968        1.25028        1.89229
H          5.96289        1.28405       -1.82521
H          5.61437       -1.33528        0.13303
H          2.98613       -2.14133        0.11828
16 16 16 16 16 16 16 16 16 16 16 16 16 16 16 16 16 16 16 16 16 16 16 16 16 16 16 16 16 16 16 16 16 16 16 16 16 16 16 16 16 16 16
C([O-])(=O)C1(OC(C(O)O)=CC=1)
InChI=1S/C6H6O5/c7-5(8)3-1-2-4(11-3)6(9)10/h1-2,5,7-8H,(H,9,10)/p-1
