20
metacyc CPD-12595  -785.14534016 -785.14534016 -785.14534016 -785.14534016 -785.14534016 -785.14534016 -785.14534016 -785.14534016 -785.14534016 -785.14534016 -785.14534016 -785.14534016 -785.14534016 -785.14534016 -785.14534016
C          1.05131        0.06926        0.15010
C          0.36576       -0.72521       -0.99268
C          1.09179       -0.63258       -2.33792
C          2.38148       -1.46785       -2.31401
C          2.06639       -2.88579       -1.85117
C          1.28504       -2.90559       -0.54096
O          0.18032       -2.10990       -0.57762
O          1.45469       -3.76283        0.31904
O          1.31907       -3.56095       -2.88956
O          2.95317       -1.53623       -3.63909
O          1.35042        0.72143       -2.72078
O          0.47451        0.02847        1.26960
O          2.11023        0.67716       -0.18687
H         -0.63547       -0.29162       -1.10633
H          0.43582       -1.03567       -3.11925
H          3.14121       -1.00918       -1.67488
H          2.99964       -3.44412       -1.72334
H          0.37439       -3.39776       -2.70410
H          2.38503       -2.15402       -4.13755
H          1.89128        1.08549       -1.97420
20 20 20 20 20 20 20 20 20 20 20 20 20 20 20 20 20 20 20 20 20 20 20 20 20 20 20 20 20 20 20 20 20 20 20 20 20 20 20 20 20 20 20 20 20 20 20 20 20 20 20 20 20 20 20
C(C1(C(C(C(C(O1)=O)O)O)O))([O-])=O
InChI=1S/C6H8O7/c7-1-2(8)4(5(10)11)13-6(12)3(1)9/h1-4,7-9H,(H,10,11)/p-1/t1-,2-,3+,4-/m0/s1
