18
metacyc CPD-144  -624.05736536 -624.05736536 -624.05736536 -624.05736536 -624.05736536 -624.05736536 -624.05736536 -624.05736536 -624.05736536 -624.05736536 -624.05736536 -624.05736536 -624.05736536 -624.05736536 -624.05736536
C          0.80168        0.09458        0.05913
O          0.26881       -0.97766        0.83561
N         -1.02445       -0.72408        1.34532
O         -1.51422        0.38188        1.11817
O         -1.48322       -1.67790        1.96899
C          2.33048       -0.05386        0.00579
O          2.68416       -1.26462       -0.67474
N          2.90667       -2.37364        0.17882
O          2.80356       -2.19015        1.39137
O          3.19563       -3.39159       -0.44394
C          2.95779        1.09693       -0.79106
O          2.46856        1.12379       -2.12824
H          0.57535        1.07363        0.49676
H          0.37053        0.02778       -0.94687
H          2.75007       -0.00225        1.01794
H          4.04718        0.99379       -0.83485
H          2.72209        2.06047       -0.32826
H          2.87483        0.37740       -2.60702
18 18 18 18 18 18 18 18 18 18 18 18 18 18 18 18 18 18 18 18 18 18 18 18 18 18 18 18 18 18 18 18 18 18 18 18 18 18 18 18 18 18 18 18 18 18 18 18 18
C(O[N+](=O)[O-])C(O[N+](=O)[O-])CO
InChI=1S/C3H6N2O7/c6-1-3(12-5(9)10)2-11-4(7)8/h3,6H,1-2H2/t3-/m0/s1
