22
metacyc CPD-14488  -708.65228064 -708.65228064 -708.65228064 -708.65228064 -708.65228064 -708.65228064 -708.65228064 -708.65228064 -708.65228064 -708.65228064 -708.65228064 -708.65228064 -708.65228064 -708.65228064 -708.65228064
C          0.60463        1.27538       -0.25805
O          0.65179        1.42835       -1.69243
C         -0.87165        1.24762        0.17255
O         -1.55790        2.35816       -0.44192
C         -1.52011       -0.10236       -0.22144
O         -2.84410       -0.19503        0.29331
O         -0.79176       -1.21870        0.27224
C          0.56346       -1.22457       -0.22595
C          1.36143       -2.44808        0.28183
O          1.59302       -2.46672        1.52958
O          1.77200       -3.22685       -0.62444
C          1.32491        0.01994        0.25534
O          1.36054        0.12023        1.68846
H          1.07151        2.17531        0.15789
H          1.08930        0.64687       -2.07484
H         -0.95004        1.38472        1.25708
H         -1.15501        2.42624       -1.33365
H         -1.61008       -0.17813       -1.31148
H         -2.72900       -0.10585        1.25331
H          0.52878       -1.27381       -1.31993
H          2.35881       -0.00027       -0.11020
H          1.48757       -0.81443        2.00507
22 22 22 22 22 22 22 22 22 22 22 22 22 22 22 22 22 22 22 22 22 22 22 22 22 22 22 22 22 22 22 22 22 22 22 22 22 22 22 22 22 22 22 22 22 22 22 22 22 22 22 22 22 22 22 22 22 22 22 22 22
C1(O)(C(O)C(O)OC(C(=O)[O-])C(O)1)
InChI=1S/C6H10O7/c7-1-2(8)4(5(10)11)13-6(12)3(1)9/h1-4,6-9,12H,(H,10,11)/p-1/t1-,2-,3+,4-,6-/m0/s1
