25
metacyc CPD-17536  -155.685594 -155.685594 -155.685594 -155.685594 -155.685594 -155.685594 -155.685594 -155.685594 -155.685594 -155.685594 -155.685594 -155.685594 -155.685594 -155.685594 -155.685594
C          2.27749       -0.52052        0.94745
O          1.71777       -1.52690        1.48342
O          2.49210        0.61137        1.48995
C          2.74585       -0.64126       -0.50817
O          2.58314       -1.71369       -1.09490
C          3.40572        0.54495       -1.17185
C          4.89914        0.62624       -0.84188
C          5.68171       -0.54330       -1.39713
O          6.78728       -0.94709       -0.56271
C          7.11874       -0.36616       -1.82649
C          7.79722        0.96414       -1.74689
O          9.03733        0.80893       -1.05969
C          6.96851        2.03940       -1.04017
C          5.48607        1.94029       -1.39355
H          2.88503        1.45650       -0.85588
H          3.24510        0.45824       -2.25296
H          5.01390        0.62645        0.25020
H          5.09253       -1.32585       -1.85643
H          7.53500       -1.01654       -2.58294
H          8.02717        1.30151       -2.76387
H          8.81551        0.32448       -0.23914
H          7.35693        3.02803       -1.31362
H          7.09306        1.96576        0.04824
H          5.36372        1.98760       -2.48419
H          4.95169        2.79801       -0.96953
25 25 25 25 25 25 25 25 25 25 25 25 25 25 25 25 25 25 25 25 25 25 25 25 25 25 25 25 25 25 25 25 25 25 25 25 25 25 25 25 25 25 25 25 25 25 25 25 25 25 25 25 25 25 25 25 25 25 25 25 25 25 25 25 25 25 25 25 25 25
C(=O)([O-])C(=O)CC1(C2(OC(C(O)CC1)2))
InChI=1S/C9H12O5/c10-5-2-1-4(7-8(5)14-7)3-6(11)9(12)13/h4-5,7-8,10H,1-3H2,(H,12,13)/p-1/t4-,5+,7+,8-/m0/s1
