24
metacyc CPD-15987  -394.7878052 -394.7878052 -394.7878052 -394.7878052 -394.7878052 -394.7878052 -394.7878052 -394.7878052 -394.7878052 -394.7878052 -394.7878052 -394.7878052 -394.7878052 -394.7878052 -394.7878052
C          0.96977        0.24885       -0.03860
O          0.28067       -0.25033       -1.18403
C          2.50826        0.06895       -0.10689
O          2.99830        0.44901        1.19124
C          2.95173       -1.39046       -0.38034
O          2.30830       -2.31210        0.51475
C          2.72389       -1.80255       -1.83676
O          3.35539       -3.08149       -2.03807
C          3.31577       -0.76206       -2.79104
O          4.75190       -0.85755       -2.69614
C          2.85739        0.65189       -2.42715
O          3.14174        0.94261       -1.05346
H          0.57501       -0.26115        0.84864
H          0.72076        1.31064        0.06433
H         -0.54688       -0.64946       -0.85953
H          3.17135       -0.38069        1.67284
H          4.02306       -1.48023       -0.15463
H          2.44174       -3.19364        0.10835
H          1.66288       -1.96216       -2.04036
H          4.26072       -2.87276       -2.35412
H          3.05820       -1.00205       -3.82658
H          5.05152       -0.13540       -2.11039
H          1.80324        0.81917       -2.64777
H          3.42619        1.37917       -3.01524
24 24 24 24 24 24 24 24 24 24 24 24 24 24 24 24 24 24 24 24 24 24 24 24 24 24 24 24 24 24 24 24 24 24 24 24 24 24 24 24 24 24 24 24 24 24 24 24 24 24 24 24 24 24 24 24 24 24 24 24 24 24 24 24 24 24 24
C(O)C1(O)(C(O)C(O)C(O)CO1)
InChI=1S/C6H12O6/c7-2-6(11)5(10)4(9)3(8)1-12-6/h3-5,7-11H,1-2H2/t3-,4+,5-,6-/m0/s1
