16
metacyc CPD-381  -581.58240152 -581.58240152 -581.58240152 -581.58240152 -581.58240152 -581.58240152 -581.58240152 -581.58240152 -581.58240152 -581.58240152 -581.58240152 -581.58240152 -581.58240152 -581.58240152 -581.58240152
C          0.91745       -0.07264        0.08032
O          0.42099        0.87703       -0.61321
O          0.33530       -1.04428        0.63657
C          2.48425       -0.03636        0.14569
O          2.95457        1.02184       -0.73515
C          3.00728        0.19720        1.56562
C          4.53929        0.18755        1.63625
C          5.18148        0.39468        3.01254
O          4.41006        0.57929        3.99425
O          6.45049        0.35088        3.01001
H          2.86487       -0.98120       -0.25777
H          2.10208        1.45277       -0.98910
H          2.60488       -0.56866        2.23968
H          2.64365        1.16495        1.93308
H          4.93805        0.97092        0.97968
H          4.90621       -0.77197        1.24974
16 16 16 16 16 16 16 16 16 16 16 16 16 16 16 16 16 16 16 16 16 16 16 16 16 16 16 16 16 16 16 16 16 16 16 16 16 16 16 16 16 16 16
C(=O)([O-])C(O)CCC(=O)[O-]
InChI=1S/C5H8O5/c6-3(5(9)10)1-2-4(7)8/h3,6H,1-2H2,(H,7,8)(H,9,10)/p-2/t3-/m0/s1
