15
metacyc CPD-10205  -137.876515152 -137.876515152 -137.876515152 -137.876515152 -137.876515152 -137.876515152 -137.876515152 -137.876515152 -137.876515152 -137.876515152 -137.876515152 -137.876515152 -137.876515152 -137.876515152 -137.876515152
C          1.16960        0.04539        0.00713
C          2.47096       -0.00316       -0.28369
C          3.28999       -1.23300       -0.37862
O          2.97388       -2.39259       -0.20389
C          4.63347       -0.74832       -0.75494
O          5.70920       -1.55424       -0.96927
C          4.54033        0.58427       -0.83784
C          5.59869        1.55839       -1.20347
O          3.26379        1.09416       -0.55959
H          0.60890       -0.86291        0.20412
H          0.64401        0.99242        0.04674
H          5.38621       -2.46625       -0.82152
H          6.51222        1.05814       -1.53983
H          5.85023        2.18735       -0.34393
H          5.25316        2.20606       -2.01556
15 15 15 15 15 15 15 15 15 15 15 15 15 15 15 15 15 15 15 15 15 15 15 15 15 15 15 15 15 15 15 15 15 15 15 15 15 15 15 15
C=C1(C(=O)C(O)=C(C)O1)
InChI=1S/C6H6O3/c1-3-5(7)6(8)4(2)9-3/h8H,1H2,2H3
