29
metacyc CPD-15118  -138.72702612 -138.72702612 -138.72702612 -138.72702612 -138.72702612 -138.72702612 -138.72702612 -138.72702612 -138.72702612 -138.72702612 -138.72702612 -138.72702612 -138.72702612 -138.72702612 -138.72702612
C          0.83746        0.09060        0.02748
C          0.35150       -0.08393       -1.40798
C         -0.81159       -1.06721       -1.61237
C         -1.37094       -0.58729       -2.94639
C         -1.27637        0.93902       -2.74186
N         -1.21306        1.73003       -3.94849
C         -2.38287        2.10233       -4.55836
N         -2.29874        2.89498       -5.66621
C         -1.14990        3.09307       -6.21232
N         -0.00083        2.52886       -5.76886
C         -0.07148        1.89560       -4.65464
N         -1.05244        3.89185       -7.29957
O         -3.47318        1.73769       -4.11987
O         -0.09489        1.18614       -1.93672
O         -0.58005       -1.08001       -4.03731
O         -1.84327       -0.95939       -0.63118
O         -0.22574        0.54758        0.86310
H          1.64697        0.82632        0.08130
H          1.20300       -0.86035        0.42673
H          1.20610       -0.38557       -2.02541
H         -0.45395       -2.10112       -1.63230
H         -2.40508       -0.90009       -3.12081
H         -2.12701        1.27628       -2.13515
H          0.83305        1.44371       -4.22133
H         -1.92684        4.00088       -7.79568
H         -0.25189        3.68438       -7.87958
H          0.33204       -0.75806       -3.96550
H         -1.51623       -0.42024        0.12192
H         -0.29246        1.51187        0.71870
29 29 29 29 29 29 29 29 29 29 29 29 29 29 29 29 29 29 29 29 29 29 29 29 29 29 29 29 29 29 29 29 29 29 29 29 29 29 29 29 29 29 29 29 29 29 29 29 29 29 29 29 29 29 29 29 29 29 29 29 29 29 29 29 29 29 29 29 29 29 29 29 29 29 29 29 29 29 29 29 29 29
C(C2(C(C(C(N1(C(N=C(N=C1)N)=O))O2)O)O))O
InChI=1S/C8H12N4O5/c9-7-10-2-12(8(16)11-7)6-5(15)4(14)3(1-13)17-6/h2-6,13-15H,1H2,(H2,9,11,16)/t3-,4-,5-,6-/m1/s1
