21
metacyc CPD-153  -627.3937288 -627.3937288 -627.3937288 -627.3937288 -627.3937288 -627.3937288 -627.3937288 -627.3937288 -627.3937288 -627.3937288 -627.3937288 -627.3937288 -627.3937288 -627.3937288 -627.3937288
C          0.99954        0.26018       -0.03160
O          0.13906       -0.64917        0.11533
O          0.79890        1.49427       -0.26899
C          2.48041       -0.12536        0.07146
C          2.85009       -1.58861        0.35817
C          4.37479       -1.77258        0.39508
C          4.83517       -3.21528        0.55929
C          5.09379       -3.67754        2.03626
O          4.61734       -4.79776        2.37824
O          5.64418       -2.80386        2.77962
C          5.03758       -3.96529       -0.54951
C          5.56579       -5.38413       -0.80306
O          6.57738       -5.76856       -0.15382
O          5.04472       -5.93808       -1.82769
H          2.92269        0.50883        0.85144
H          2.94619        0.17273       -0.87762
H          2.41139       -2.23106       -0.41089
H          2.41196       -1.89559        1.31724
H          4.80478       -1.13910        1.17904
H          4.79374       -1.37666       -0.53995
H          4.77350       -3.50622       -1.50127
21 21 21 21 21 21 21 21 21 21 21 21 21 21 21 21 21 21 21 21 21 21 21 21 21 21 21 21 21 21 21 21 21 21 21 21 21 21 21 21 21 21 21 21 21 21 21 21 21 21 21 21 21 21 21 21 21 21
C(=O)([O-])CCCC(C([O-])=O)=CC(=O)[O-]
InChI=1S/C8H10O6/c9-6(10)3-1-2-5(8(13)14)4-7(11)12/h4H,1-3H2,(H,9,10)(H,11,12)(H,13,14)/p-3/b5-4-
