27
metacyc CPD-301  -692.05949896 -692.05949896 -692.05949896 -692.05949896 -692.05949896 -692.05949896 -692.05949896 -692.05949896 -692.05949896 -692.05949896 -692.05949896 -692.05949896 -692.05949896 -692.05949896 -692.05949896
C          0.69832       -0.09989        0.09644
O          0.01362        0.09278       -0.94590
O          0.28246       -0.37600        1.26463
C          2.22398        0.00518       -0.02664
C          2.81469        0.37306       -1.39083
C          4.35149        0.43523       -1.33613
C          4.97952        0.81833       -2.69229
C          6.51580        0.91383       -2.66128
O          6.91806        1.88822       -1.65545
C          7.14008       -0.48868       -2.23564
O          6.94855       -1.49003       -2.98224
O          7.79361       -0.43038       -1.13614
C          7.16836        1.27221       -4.00533
C          6.85934        2.58550       -4.72820
O          5.66249        2.77457       -5.09422
O          7.87092        3.30246       -5.01608
H          2.63734       -0.96206        0.28818
H          2.55507        0.74656        0.71236
H          2.41747        1.34268       -1.71365
H          2.50342       -0.36578       -2.13878
H          4.73210       -0.54088       -1.01396
H          4.65196        1.16505       -0.57484
H          4.56462        1.79341       -2.97244
H          4.66300        0.09573       -3.45409
H          7.41844        1.31780       -1.02347
H          6.93845        0.48489       -4.73758
H          8.25983        1.23803       -3.87244
27 27 27 27 27 27 27 27 27 27 27 27 27 27 27 27 27 27 27 27 27 27 27 27 27 27 27 27 27 27 27 27 27 27 27 27 27 27 27 27 27 27 27 27 27 27 27 27 27 27 27 27 27 27 27 27 27 27 27 27 27 27 27 27 27 27 27 27 27 27 27 27 27 27 27 27
C(=O)([O-])CCCCC(O)(C([O-])=O)CC(=O)[O-]
InChI=1S/C9H14O7/c10-6(11)3-1-2-4-9(16,8(14)15)5-7(12)13/h16H,1-5H2,(H,10,11)(H,12,13)(H,14,15)/p-3/t9-/m1/s1
