17
metacyc CPD-761  -776.31509184 -776.31509184 -776.31509184 -776.31509184 -776.31509184 -776.31509184 -776.31509184 -776.31509184 -776.31509184 -776.31509184 -776.31509184 -776.31509184 -776.31509184 -776.31509184 -776.31509184
C          1.07155       -0.70147       -0.05538
C          1.01774        0.62708        0.00063
C          2.23525        1.50238       -0.18117
O          3.34900        0.91279       -0.04144
O          2.01578        2.69962       -0.50544
C         -0.37128        1.12178        0.17729
C         -0.62759        1.74221        1.54325
C         -2.04668        2.27912        1.71591
O         -2.63454        2.71884        0.68881
O         -2.47542        2.25518        2.91125
O         -1.13711       -0.10914        0.09001
C         -0.30021       -1.17410        0.02026
O         -0.63111       -2.34870       -0.02257
H          1.93419       -1.32689       -0.18774
H         -0.67324        1.76931       -0.65267
H          0.05478        2.58290        1.71667
H         -0.44810        1.00052        2.33313
17 17 17 17 17 17 17 17 17 17 17 17 17 17 17 17 17 17 17 17 17 17 17 17 17 17 17 17 17 17 17 17 17 17 17 17 17 17 17 17 17 17 17 17 17 17
C1(=C(C([O-])=O)C(CC([O-])=O)OC(=O)1)
InChI=1S/C7H6O6/c8-5(9)2-4-3(7(11)12)1-6(10)13-4/h1,4H,2H2,(H,8,9)(H,11,12)/p-2
