27
metacyc CPD-822  -441.43681112 -441.43681112 -441.43681112 -441.43681112 -441.43681112 -441.43681112 -441.43681112 -441.43681112 -441.43681112 -441.43681112 -441.43681112 -441.43681112 -441.43681112 -441.43681112 -441.43681112
C          0.44046       -0.44963       -0.63871
C         -0.06099        0.33257        0.54405
C         -1.53962        0.66105        0.33411
C         -2.16223        1.46962        1.48310
N         -1.42895        2.73057        1.73063
C         -1.36245        3.77432        0.85045
C         -0.54432        4.99759        1.26361
C          0.09406        5.08633        2.64238
C          1.25901        4.11914        2.81950
O          0.92804        2.90603        2.95433
O          2.40438        4.64665        2.85927
O         -1.91061        3.76967       -0.25519
C         -3.72992        1.57861        1.35260
O         -4.26660        0.93538        0.39766
O         -4.31574        2.21259        2.28339
O          1.03718       -1.52238       -0.56429
H          0.28205        0.02671       -1.62261
H          0.54336        1.24323        0.60642
H          0.08637       -0.25321        1.45635
H         -2.08231       -0.28587        0.21477
H         -1.66521        1.19656       -0.61561
H         -2.01422        0.89278        2.40637
H         -0.67600        2.67916        2.42622
H         -1.24054        5.84445        1.18182
H          0.22513        5.13868        0.49523
H         -0.64451        4.91672        3.43306
H          0.47609        6.10707        2.78137
27 27 27 27 27 27 27 27 27 27 27 27 27 27 27 27 27 27 27 27 27 27 27 27 27 27 27 27 27 27 27 27 27 27 27 27 27 27 27 27 27 27 27 27 27 27 27 27 27 27 27 27 27 27 27 27 27 27 27 27 27 27 27 27 27 27 27 27 27 27 27 27 27 27 27 27
C(CCC(NC(CCC(=O)[O-])=O)C(=O)[O-])=O
InChI=1S/C9H13NO6/c11-5-1-2-6(9(15)16)10-7(12)3-4-8(13)14/h5-6H,1-4H2,(H,10,12)(H,13,14)(H,15,16)/p-2/t6-/m0/s1
