25
metacyc CPD-7070  -271.46151824 -271.46151824 -271.46151824 -271.46151824 -271.46151824 -271.46151824 -271.46151824 -271.46151824 -271.46151824 -271.46151824 -271.46151824 -271.46151824 -271.46151824 -271.46151824 -271.46151824
C         -0.59120       -1.92495        0.64668
C          0.20891       -1.06512       -0.40423
C         -0.70026       -0.56846       -1.54836
C         -1.76647        0.44626       -1.17935
C         -1.48117        1.81835       -1.13808
C         -2.46639        2.74105       -0.77685
C         -3.74572        2.28949       -0.46722
C         -4.05172        0.93667       -0.51028
C         -3.06289        0.01753       -0.86236
O         -4.73398        3.15912       -0.10467
N          0.97936        0.05793        0.23752
O          1.84439       -0.52479        1.25623
O          1.85927        0.56261       -0.80424
O         -1.54150       -2.62729        0.19055
O         -0.12619       -1.91361        1.83416
H          0.93553       -1.76718       -0.83855
H         -1.18632       -1.42554       -2.03376
H         -0.08069       -0.13055       -2.34339
H         -0.48115        2.16942       -1.37252
H         -2.21344        3.79442       -0.73535
H         -5.04563        0.58715       -0.25242
H         -3.29747       -1.04671       -0.86419
H         -4.32748        4.03200        0.00851
H          1.19112       -1.05083        1.79300
H          1.72304        1.51413       -0.66679
25 25 25 25 25 25 25 25 25 25 25 25 25 25 25 25 25 25 25 25 25 25 25 25 25 25 25 25 25 25 25 25 25 25 25 25 25 25 25 25 25 25 25 25 25 25 25 25 25 25 25 25 25 25 25 25 25 25 25 25 25 25 25 25 25 25 25 25 25 25
C(C(CC1(=CC=C(C=C1)O))N(O)O)([O-])=O
InChI=1S/C9H11NO5/c11-7-3-1-6(2-4-7)5-8(9(12)13)10(14)15/h1-4,8,11,14-15H,5H2,(H,12,13)/p-1/t8-/m0/s1
