20
metacyc CPD-7272  -69.267559296 -69.267559296 -69.267559296 -69.267559296 -69.267559296 -69.267559296 -69.267559296 -69.267559296 -69.267559296 -69.267559296 -69.267559296 -69.267559296 -69.267559296 -69.267559296 -69.267559296
C         -1.22532        1.52046       -0.06045
C         -2.43441        0.61806       -0.01881
C         -3.22236        0.77866        1.31856
O         -3.70566        1.92709        1.54139
O         -3.29702       -0.27930        2.02176
N         -1.78144       -0.72081       -0.16429
C         -0.40729       -0.59245       -0.14256
C         -0.08552        0.81668       -0.14919
C          1.31179        1.31061       -0.18606
C          2.25367        0.26504        0.35798
C          1.93262       -1.18205       -0.00748
C          0.51010       -1.55763       -0.08965
O          2.82542       -1.99474       -0.20777
O          3.27511        0.53211        0.98211
H         -1.31521        2.59515       -0.00233
H         -3.09748        0.79534       -0.87120
H         -2.13301       -1.29599        0.61764
H          1.41542        2.22208        0.41243
H          1.61392        1.52710       -1.21637
H          0.25890       -2.60805       -0.10898
20 20 20 20 20 20 20 20 20 20 20 20 20 20 20 20 20 20 20 20 20 20 20 20 20 20 20 20 20 20 20 20 20 20 20 20 20 20 20 20 20 20 20 20 20 20 20 20 20 20 20 20 20 20 20
C2(C(C([O-])=O)NC1(C(CC(C(C=1)=O)=O)=2))
InChI=1S/C9H7NO4/c11-7-2-4-1-6(9(13)14)10-5(4)3-8(7)12/h1,3,6,10H,2H2,(H,13,14)/p-1
