22
metacyc CPD-17822  -79.314238672 -79.314238672 -79.314238672 -79.314238672 -79.314238672 -79.314238672 -79.314238672 -79.314238672 -79.314238672 -79.314238672 -79.314238672 -79.314238672 -79.314238672 -79.314238672 -79.314238672
C          0.92324        0.22333        0.04772
C          2.43291        0.10649       -0.15885
C          2.91198       -1.32568       -0.45927
O          2.41118       -2.25283        0.50080
C          2.53875       -1.73031       -1.89471
O          3.06978       -3.01700       -2.21422
C          3.04594       -0.69208       -2.88339
C          2.53896        0.68980       -2.48919
O          3.10420        1.66246       -3.34981
O          2.90385        1.02098       -1.15654
H          0.59378       -0.37917        0.89960
H          0.35932       -0.09923       -0.83160
H          0.64999        1.26635        0.23393
H          2.89816        0.41817        0.78402
H          4.00791       -1.35273       -0.37190
H          1.75686       -2.82517        0.06197
H          1.45121       -1.83007       -1.98584
H          3.98358       -3.06775       -1.88089
H          2.74015       -0.94234       -3.90623
H          4.14276       -0.70408       -2.89932
H          1.45251        0.75495       -2.60523
H          4.05607        1.65823       -3.15275
22 22 22 22 22 22 22 22 22 22 22 22 22 22 22 22 22 22 22 22 22 22 22 22 22 22 22 22 22 22 22 22 22 22 22 22 22 22 22 22 22 22 22 22 22 22 22 22 22 22 22 22 22 22 22 22 22 22 22 22 22
CC1(C(O)C(O)CC(O)O1)
InChI=1S/C6H12O4/c1-3-6(9)4(7)2-5(8)10-3/h3-9H,2H2,1H3/t3-,4+,5-,6-/m0/s1
