27
metacyc CPD-3565  -250.34679488 -250.34679488 -250.34679488 -250.34679488 -250.34679488 -250.34679488 -250.34679488 -250.34679488 -250.34679488 -250.34679488 -250.34679488 -250.34679488 -250.34679488 -250.34679488 -250.34679488
C          1.74751        0.55282       -1.92717
O          1.82903        0.89043       -0.54561
C          3.14118        1.32464       -0.20314
O          3.26481        2.74468       -0.42475
C          2.46737        3.52030        0.50059
C          2.53551        4.99849        0.08096
O          1.85155        5.17780       -1.16201
C          3.04556        3.31002        1.90495
O          4.45690        3.61326        1.92854
C          2.85181        1.83554        2.28145
O          3.41056        1.59230        3.58015
C          3.50403        0.90887        1.24367
O          4.93896        0.91685        1.40785
H          0.69515        0.51634       -2.21813
H          2.18886       -0.43668       -2.08616
H          2.25924        1.29149       -2.55383
H          3.87514        0.85081       -0.86734
H          1.42039        3.19217        0.43939
H          3.56508        5.33118       -0.07088
H          2.05557        5.63977        0.81998
H          2.21984        4.51393       -1.77482
H          2.55975        3.95578        2.64542
H          4.72674        3.87563        1.02885
H          1.77951        1.61816        2.34488
H          4.37703        1.69803        3.46708
H          3.18555       -0.12274        1.43533
H          5.23921        1.83308        1.26073
27 27 27 27 27 27 27 27 27 27 27 27 27 27 27 27 27 27 27 27 27 27 27 27 27 27 27 27 27 27 27 27 27 27 27 27 27 27 27 27 27 27 27 27 27 27 27 27 27 27 27 27 27 27 27 27 27 27 27 27 27 27 27 27 27 27 27 27 27 27 27 27 27 27 27 27
COC1(OC(CO)C(O)C(O)C(O)1)
InChI=1S/C7H14O6/c1-12-7-6(11)5(10)4(9)3(2-8)13-7/h3-11H,2H2,1H3/t3-,4+,5+,6-,7+/m1/s1
