11
metacyc CPD-13859  -61.448165376 -61.448165376 -61.448165376 -61.448165376 -61.448165376 -61.448165376 -61.448165376 -61.448165376 -61.448165376 -61.448165376 -61.448165376 -61.448165376 -61.448165376 -61.448165376 -61.448165376
C          1.08496        0.00779       -0.05027
C          2.42893       -0.00342       -0.06497
C          3.21397       -0.77485       -1.08017
C          3.25100        0.79882        0.99078
O          2.57375        1.44585        1.84013
O          4.50633        0.70538        0.86994
H          0.49951       -0.54282       -0.77489
H          0.55141        0.58092        0.70393
H          2.56228       -1.30746       -1.78125
H          3.84885       -1.52031       -0.59026
H          3.84898       -0.10314       -1.66700
11 11 11 11 11 11 11 11 11 11 11 11 11 11 11 11 11 11 11 11 11 11 11 11 11 11 11 11
C=C(C)C(=O)[O-]
InChI=1S/C4H6O2/c1-3(2)4(5)6/h1H2,2H3,(H,5,6)/p-1
