24
metacyc CPD-11613  -397.59112704 -397.59112704 -397.59112704 -397.59112704 -397.59112704 -397.59112704 -397.59112704 -397.59112704 -397.59112704 -397.59112704 -397.59112704 -397.59112704 -397.59112704 -397.59112704 -397.59112704
C          0.79012        0.18368        0.16171
O          0.45105        1.54271        0.41759
C          2.31293        0.02908        0.00135
C          2.74778       -1.41748       -0.27732
C          2.46146       -1.81309       -1.73123
C          3.01311       -0.77675       -2.70805
C          2.48572        0.61756       -2.33636
O          2.84055        0.93547       -0.99079
O          3.06686        1.59722       -3.18393
O          4.45783       -0.78921       -2.64194
O          3.04661       -3.10082       -1.97351
O          2.09202       -2.33142        0.60190
H          0.25058       -0.12461       -0.73785
H          0.41870       -0.41504        0.99882
H          1.06610        2.09641       -0.10013
H          2.76063        0.34832        0.95092
H          3.82461       -1.51285       -0.08739
H          1.38240       -1.93402       -1.87659
H          2.76231       -1.03385       -3.74027
H          1.40151        0.68177       -2.46444
H          3.94953        1.27037       -3.43378
H          4.72079       -0.20059       -1.90537
H          3.96691       -2.93504       -2.26499
H          2.17868       -3.21657        0.19118
24 24 24 24 24 24 24 24 24 24 24 24 24 24 24 24 24 24 24 24 24 24 24 24 24 24 24 24 24 24 24 24 24 24 24 24 24 24 24 24 24 24 24 24 24 24 24 24 24 24 24 24 24 24 24 24 24 24 24 24 24 24 24 24 24 24 24
C(O)C1(C(C(C(C(O1)O)O)O)O)
InChI=1S/C6H12O6/c7-1-2-3(8)4(9)5(10)6(11)12-2/h2-11H,1H2/t2-,3-,4+,5+,6+/m0/s1
