15
metacyc CPD-18972  -268.64957736 -268.64957736 -268.64957736 -268.64957736 -268.64957736 -268.64957736 -268.64957736 -268.64957736 -268.64957736 -268.64957736 -268.64957736 -268.64957736 -268.64957736 -268.64957736 -268.64957736
C          1.06484       -0.11718        0.10048
C          0.40095       -1.49100       -0.09421
N          0.74031       -2.40092        1.01236
C         -1.14981       -1.47309       -0.16893
O         -1.75491       -0.59599        0.51561
O         -1.66378       -2.35571       -0.92712
C          2.60254       -0.15716        0.10756
N          3.12063       -0.65283       -1.17862
C          3.30440        1.20712        0.34832
O          2.70665        2.24791       -0.05468
O          4.42753        1.13872        0.94278
H          0.72189        0.33378        1.04179
H          0.71174        0.55791       -0.69110
H          0.76330       -1.93914       -1.02672
H          2.94221       -0.83787        0.89713
15 15 15 15 15 15 15 15 15 15 15 15 15 15 15 15 15 15 15 15 15 15 15 15 15 15 15 15 15 15 15 15 15 15 15 15 15 15 15 15
C(C([N+])C([O-])=O)C([N+])C([O-])=O
InChI=1S/C5H10N2O4/c6-2(4(8)9)1-3(7)5(10)11/h2-3H,1,6-7H2,(H,8,9)(H,10,11)/t2-,3?/m0/s1
