22
metacyc CPD-16412  -79.314238672 -79.314238672 -79.314238672 -79.314238672 -79.314238672 -79.314238672 -79.314238672 -79.314238672 -79.314238672 -79.314238672 -79.314238672 -79.314238672 -79.314238672 -79.314238672 -79.314238672
C          0.94932       -0.02005        0.03072
C          2.46597       -0.10091       -0.12706
O          2.89582       -1.42598       -0.45966
C          2.53472       -1.85297       -1.77124
C          3.04274       -0.89721       -2.87297
C          2.67293        0.55617       -2.57268
C          3.04526        0.91359       -1.13188
O          4.48249        0.89664       -1.06165
O          4.47344       -1.02772       -2.98488
O          3.09336       -3.14258       -1.98279
H          0.60092       -0.79260        0.72265
H          0.41986       -0.17941       -0.91188
H          0.65241        0.95920        0.42270
H          2.90438        0.10271        0.85743
H          1.44694       -1.95871       -1.82619
H          2.64011       -1.20478       -3.84382
H          1.59867        0.70445       -2.73010
H          3.21140        1.21798       -3.26322
H          2.71643        1.93039       -0.89206
H          4.73944        0.65447       -0.15222
H          4.85734       -0.43739       -2.29969
H          3.99515       -2.95849       -2.31289
22 22 22 22 22 22 22 22 22 22 22 22 22 22 22 22 22 22 22 22 22 22 22 22 22 22 22 22 22 22 22 22 22 22 22 22 22 22 22 22 22 22 22 22 22 22 22 22 22 22 22 22 22 22 22 22 22 22 22 22 22
CC1(OC(C(CC1O)O)O)
InChI=1S/C6H12O4/c1-3-4(7)2-5(8)6(9)10-3/h3-9H,2H2,1H3/t3-,4+,5+,6-/m0/s1
