19
metacyc CPD-547  -502.36986752 -502.36986752 -502.36986752 -502.36986752 -502.36986752 -502.36986752 -502.36986752 -502.36986752 -502.36986752 -502.36986752 -502.36986752 -502.36986752 -502.36986752 -502.36986752 -502.36986752
C          0.83823        0.03749        0.06391
C          2.36819        0.03467       -0.02938
C          2.90809       -1.11750       -0.89785
C          2.59638       -2.54038       -0.41461
O          2.43222       -2.67098        0.83832
O          2.59024       -3.44135       -1.30207
C          2.90964        1.40405       -0.47493
C          2.52848        2.07426       -1.79684
O          1.69724        1.48747       -2.53956
O          3.09192        3.19640       -1.99282
O          2.86155       -0.14309        1.32526
H          0.35812        0.12705       -0.91352
H          0.49377        0.86383        0.69695
H          0.46354       -0.87623        0.53748
H          4.00442       -1.06168       -0.92570
H          2.55059       -1.01186       -1.92836
H          4.00854        1.35705       -0.45727
H          2.65812        2.13576        0.30799
H          2.70948       -1.10693        1.50180
19 19 19 19 19 19 19 19 19 19 19 19 19 19 19 19 19 19 19 19 19 19 19 19 19 19 19 19 19 19 19 19 19 19 19 19 19 19 19 19 19 19 19 19 19 19 19 19 19 19 19 19
CC(CC([O-])=O)(CC([O-])=O)O
InChI=1S/C6H10O5/c1-6(11,2-4(7)8)3-5(9)10/h11H,2-3H2,1H3,(H,7,8)(H,9,10)/p-2
