25
metacyc CPD-19609  -539.08421648 -539.08421648 -539.08421648 -539.08421648 -539.08421648 -539.08421648 -539.08421648 -539.08421648 -539.08421648 -539.08421648 -539.08421648 -539.08421648 -539.08421648 -539.08421648 -539.08421648
C          4.29312        0.40604        0.65287
C          4.39446        0.45406       -0.86544
O          3.06592        0.23545       -1.39336
C          2.83808       -0.75684       -2.29857
C          3.34169       -2.06506       -2.27784
N          4.27157       -2.54522       -1.27955
O          3.82675       -2.75662       -0.14576
O          5.41011       -2.84385       -1.67288
C          2.92012       -3.05932       -3.18932
C          1.96544       -2.76715       -4.15401
C          1.45572       -1.47720       -4.22343
C          1.89758       -0.49318       -3.31155
N          1.30105        0.82651       -3.46805
O          0.60273        1.25059       -2.53793
O          1.37263        1.34115       -4.59660
C          4.95587        1.79747       -1.40654
O          5.41524        2.60761       -0.55195
O          4.94604        1.88866       -2.67074
H          3.75913       -0.48755        0.98861
H          3.72748        1.26016        1.04138
H          5.28481        0.41051        1.11570
H          5.11201       -0.29095       -1.21322
H          3.32756       -4.06745       -3.12571
H          1.62486       -3.53627       -4.84197
H          0.70756       -1.23552       -4.97713
25 25 25 25 25 25 25 25 25 25 25 25 25 25 25 25 25 25 25 25 25 25 25 25 25 25 25 25 25 25 25 25 25 25 25 25 25 25 25 25 25 25 25 25 25 25 25 25 25 25 25 25 25 25 25 25 25 25 25 25 25 25 25 25 25 25 25 25 25 25
CC(OC1(C([N+]([O-])=O)=CC=CC([N+]([O-])=O)=1))C(=O)[O-]
InChI=1S/C9H8N2O7/c1-5(9(12)13)18-8-6(10(14)15)3-2-4-7(8)11(16)17/h2-5H,1H3,(H,12,13)/p-1
