24
metacyc CPD-15986  -394.7878052 -394.7878052 -394.7878052 -394.7878052 -394.7878052 -394.7878052 -394.7878052 -394.7878052 -394.7878052 -394.7878052 -394.7878052 -394.7878052 -394.7878052 -394.7878052 -394.7878052
C          0.87869        0.12006       -0.02234
O          0.18875       -0.37514       -1.17014
C          2.41763       -0.06127       -0.08695
O          2.90642        0.31541        1.21370
C          2.86574       -1.51914       -0.36139
O          2.22373       -2.44511        0.52930
C          2.63954       -1.92729       -1.81961
O          3.27135       -3.20628       -2.02382
C          3.22924       -0.88577       -2.77204
O          4.66615       -0.98104       -2.67955
C          2.77123        0.52564       -2.40638
O          3.05399        0.81490       -1.03222
H          0.47892       -0.38732        0.86309
H          0.63367        1.18298        0.07988
H         -0.55856       -0.90672       -0.84348
H          3.08100       -0.51503        1.69202
H          3.93671       -1.60591       -0.13644
H          2.39185       -3.32881        0.13833
H          1.57844       -2.08982       -2.02244
H          4.17633       -2.99726       -2.34109
H          2.97217       -1.12618       -3.80817
H          4.96730       -0.25027       -2.10176
H          1.71496        0.69495       -2.62884
H          3.33987        1.25636       -2.99352
24 24 24 24 24 24 24 24 24 24 24 24 24 24 24 24 24 24 24 24 24 24 24 24 24 24 24 24 24 24 24 24 24 24 24 24 24 24 24 24 24 24 24 24 24 24 24 24 24 24 24 24 24 24 24 24 24 24 24 24 24 24 24 24 24 24 24
C(O)C1(O)(C(O)C(O)C(O)CO1)
InChI=1S/C6H12O6/c7-2-6(11)5(10)4(9)3(8)1-12-6/h3-5,7-11H,1-2H2/t3-,4+,5-,6+/m0/s1
