16
metacyc CPD-16576  -338.49195968 -338.49195968 -338.49195968 -338.49195968 -338.49195968 -338.49195968 -338.49195968 -338.49195968 -338.49195968 -338.49195968 -338.49195968 -338.49195968 -338.49195968 -338.49195968 -338.49195968
C          1.12313        0.11474        0.07621
C          2.59231       -0.14196       -0.10525
C          3.10786       -1.14490       -0.85175
C          2.46100       -2.24281       -1.71886
O          1.28322       -2.05514       -2.12836
O          3.24216       -3.20899       -1.98205
C          3.53510        0.84415        0.57684
C          3.05350        1.49893        1.88070
O          3.40428        0.92822        2.95651
O          2.42831        2.59593        1.74840
H          0.48356       -0.60083       -0.44152
H          0.86491        1.11206       -0.29393
H          0.85440        0.05523        1.13609
H          4.19533       -1.23112       -0.88820
H          3.74539        1.65264       -0.13614
H          4.49925        0.36181        0.78652
16 16 16 16 16 16 16 16 16 16 16 16 16 16 16 16 16 16 16 16 16 16 16 16 16 16 16 16 16 16 16 16 16 16 16 16 16 16 16 16 16 16 16
CC(=CC(=O)[O-])CC(=O)[O-]
InChI=1S/C6H8O4/c1-4(2-5(7)8)3-6(9)10/h2H,3H2,1H3,(H,7,8)(H,9,10)/p-2/b4-2+
