24
metacyc CPD-16889  -159.813641368 -159.813641368 -159.813641368 -159.813641368 -159.813641368 -159.813641368 -159.813641368 -159.813641368 -159.813641368 -159.813641368 -159.813641368 -159.813641368 -159.813641368 -159.813641368 -159.813641368
C          0.62127        1.14342        0.29021
O          0.57207        1.15672        1.70778
N          1.33333       -0.08603       -0.02910
C          0.55229       -1.32202        0.29023
C          1.35324       -2.55147       -0.18282
O          2.62330       -2.52377        0.47419
C         -0.84569       -1.28218       -0.36866
O         -0.67630       -1.28155       -1.79383
C         -1.62268       -0.02354        0.06875
O         -1.89200       -0.06283        1.48592
C         -0.80285        1.23244       -0.29629
O         -1.44510        2.40487        0.23012
H          1.18840        2.03176       -0.01114
H          1.36591        0.62142        1.90765
H          0.43797       -1.42006        1.37844
H          1.54383       -2.53456       -1.26134
H          0.84563       -3.48658        0.07065
H          2.80604       -1.55697        0.47344
H         -1.40794       -2.18147       -0.09242
H          0.14823       -0.76038       -1.91041
H         -2.59355        0.02326       -0.43556
H         -1.03053        0.18853        1.89045
H         -0.75388        1.34289       -1.38472
H         -1.24348        2.34656        1.18488
24 24 24 24 24 24 24 24 24 24 24 24 24 24 24 24 24 24 24 24 24 24 24 24 24 24 24 24 24 24 24 24 24 24 24 24 24 24 24 24 24 24 24 24 24 24 24 24 24 24 24 24 24 24 24 24 24 24 24 24 24 24 24 24 24 24 24
C1(O)([N+]C(CO)C(O)C(O)C(O)1)
InChI=1S/C6H13NO5/c8-1-2-3(9)4(10)5(11)6(12)7-2/h2-12H,1H2/p+1/t2-,3-,4+,5-,6?/m1/s1
