19
metacyc CPD-10188  -776.64173672 -776.64173672 -776.64173672 -776.64173672 -776.64173672 -776.64173672 -776.64173672 -776.64173672 -776.64173672 -776.64173672 -776.64173672 -776.64173672 -776.64173672 -776.64173672 -776.64173672
C          1.02239        0.26622       -0.09760
C          0.17205       -0.44564        1.01625
O          0.14942        0.08223        2.17187
O         -0.54122       -1.42597        0.61397
N          2.51825        0.08734       -0.00112
C          2.83853       -1.38649        0.01653
C          4.36575       -1.75505        0.03349
O          4.99531       -1.62107        1.12913
O          4.80482       -2.30331       -1.03285
C          3.17293        0.71959       -1.20501
C          2.87044        2.24646       -1.42522
O          3.69645        3.07809       -0.92992
O          1.91270        2.51201       -2.22584
H          0.78192        1.33291       -0.01991
H          0.66653       -0.08420       -1.07573
H          2.37566       -1.87947       -0.84876
H          2.41174       -1.83759        0.91996
H          2.88257        0.18265       -2.11804
H          4.26125        0.63199       -1.10660
19 19 19 19 19 19 19 19 19 19 19 19 19 19 19 19 19 19 19 19 19 19 19 19 19 19 19 19 19 19 19 19 19 19 19 19 19 19 19 19 19 19 19 19 19 19 19 19 19 19 19 19
C(C([O-])=O)N(CC([O-])=O)CC([O-])=O
InChI=1S/C6H9NO6/c8-4(9)1-7(2-5(10)11)3-6(12)13/h1-3H2,(H,8,9)(H,10,11)(H,12,13)/p-3
