19
metacyc CPD-11245  -259.634864848 -259.634864848 -259.634864848 -259.634864848 -259.634864848 -259.634864848 -259.634864848 -259.634864848 -259.634864848 -259.634864848 -259.634864848 -259.634864848 -259.634864848 -259.634864848 -259.634864848
C          0.98747        0.02272        0.08801
C          2.48754        0.04633        0.09036
C          3.18096        1.26333        0.09119
C          4.57449        1.26913        0.09377
O          5.27160        2.44387        0.09444
C          5.29547        0.08020        0.09566
C          4.62920       -1.15669        0.09458
C          5.41256       -2.44747        0.09639
O          4.71384       -3.51672        0.09436
O          6.67965       -2.38360        0.09970
C          3.22129       -1.15034        0.09178
O          2.51138       -2.32835        0.09020
H          0.57060        1.03547        0.08850
H          0.61375       -0.48949        0.98052
H          0.61644       -0.48772       -0.80661
H          2.62665        2.19539        0.08998
H          4.63090        3.17057        0.09054
H          6.38341        0.10134        0.09797
H          3.20048       -3.04999        0.09129
19 19 19 19 19 19 19 19 19 19 19 19 19 19 19 19 19 19 19 19 19 19 19 19 19 19 19 19 19 19 19 19 19 19 19 19 19 19 19 19 19 19 19 19 19 19 19 19 19 19 19 19
CC1(=CC(O)=CC(C(=O)[O-])=C(O)1)
InChI=1S/C8H8O4/c1-4-2-5(9)3-6(7(4)10)8(11)12/h2-3,9-10H,1H3,(H,11,12)/p-1
