18
metacyc CPD-9159  -342.80147968 -342.80147968 -342.80147968 -342.80147968 -342.80147968 -342.80147968 -342.80147968 -342.80147968 -342.80147968 -342.80147968 -342.80147968 -342.80147968 -342.80147968 -342.80147968 -342.80147968
C          0.95118       -0.07721       -0.30740
C          2.43645       -0.00222        0.06042
C          3.02546        1.33279       -0.39340
H          3.94584        1.65278        0.12608
O          2.61282        1.99168       -1.35473
C          2.80957       -0.21157        1.55236
O          3.98141       -0.68064        1.62924
C          1.90369        0.09982        2.51195
C          2.02357        0.02253        4.01880
C          0.71829        0.14420        4.86699
O         -0.37877        0.28694        4.22326
O          0.80829        0.10520        6.14352
O          3.07457       -0.06657        4.65258
H          0.82413       -0.01682       -1.39488
H          0.37471        0.75093        0.11879
H          0.50990       -1.02375        0.02411
H          2.93558       -0.77344       -0.54764
H          0.92259        0.46983        2.23288
18 18 18 18 18 18 18 18 18 18 18 18 18 18 18 18 18 18 18 18 18 18 18 18 18 18 18 18 18 18 18 18 18 18 18 18 18 18 18 18 18 18 18 18 18 18 18 18 18
CC([CH]=O)C([O-])=CC(C(=O)[O-])=O
InChI=1S/C7H8O5/c1-4(3-8)5(9)2-6(10)7(11)12/h2-4,9H,1H3,(H,11,12)/p-2/b5-2+
