15
metacyc CPD-3618  -158.423879744 -158.423879744 -158.423879744 -158.423879744 -158.423879744 -158.423879744 -158.423879744 -158.423879744 -158.423879744 -158.423879744 -158.423879744 -158.423879744 -158.423879744 -158.423879744 -158.423879744
C          0.93768        0.04665       -0.06331
C          2.45773        0.05340       -0.04732
C          3.03346       -0.88044       -1.10853
C          4.54670       -0.86170       -1.10474
O          5.21934       -0.61860       -0.10011
C          5.28629       -1.21623       -2.40428
O          4.53778       -1.52146       -3.38885
O          6.55641       -1.17651       -2.40279
H          0.54752        0.73714        0.69108
H          0.54874       -0.95265        0.15664
H          0.55321        0.35827       -1.03977
H          2.80870       -0.24064        0.94913
H          2.81732        1.07491       -0.21996
H          2.66628       -0.56719       -2.09101
H          2.71058       -1.91250       -0.93239
15 15 15 15 15 15 15 15 15 15 15 15 15 15 15 15 15 15 15 15 15 15 15 15 15 15 15 15 15 15 15 15 15 15 15 15 15 15 15 15
CCCC(=O)C(=O)[O-]
InChI=1S/C5H8O3/c1-2-3-4(6)5(7)8/h2-3H2,1H3,(H,7,8)/p-1
