20
metacyc CPD-17912  -31.169724712 -31.169724712 -31.169724712 -31.169724712 -31.169724712 -31.169724712 -31.169724712 -31.169724712 -31.169724712 -31.169724712 -31.169724712 -31.169724712 -31.169724712 -31.169724712 -31.169724712
C          1.06453        0.04325        0.18273
C          2.57495        0.07746       -0.00028
C          3.02420        0.30483       -1.46050
C          2.54168        1.65379       -2.02232
O          3.11091        2.73870       -1.24606
C          2.94649        1.82775       -3.52215
O          3.88519        2.66971       -3.69232
O          2.29792        1.14452       -4.35914
C          4.55692        0.18559       -1.51131
H          0.81776       -0.25787        1.20632
H          0.60147       -0.67439       -0.50140
H          0.61635        1.02649        0.01414
H          2.97733       -0.88175        0.35020
H          2.99828        0.84846        0.65509
H          2.60883       -0.50335       -2.07676
H          1.45227        1.74795       -1.96256
H          3.72370        3.14904       -1.90629
H          5.04344        0.98302       -0.93852
H          4.92510        0.23271       -2.54067
H          4.88703       -0.77186       -1.09376
20 20 20 20 20 20 20 20 20 20 20 20 20 20 20 20 20 20 20 20 20 20 20 20 20 20 20 20 20 20 20 20 20 20 20 20 20 20 20 20 20 20 20 20 20 20 20 20 20 20 20 20 20 20 20
CCC(C(O)C([O-])=O)C
InChI=1S/C6H12O3/c1-3-4(2)5(7)6(8)9/h4-5,7H,3H2,1-2H3,(H,8,9)/p-1/t4?,5-/m1/s1
