10
metacyc CPD-14534  -122.107537968 -122.107537968 -122.107537968 -122.107537968 -122.107537968 -122.107537968 -122.107537968 -122.107537968 -122.107537968 -122.107537968 -122.107537968 -122.107537968 -122.107537968 -122.107537968 -122.107537968
C          1.03860       -0.01905        0.04066
C          0.58114        0.51218        1.39646
O          1.27137        1.26584        2.07758
N         -0.65663        0.11621        1.80756
O          2.45248       -0.00077       -0.07900
H          0.61233        0.61345       -0.74363
H          0.69370       -1.04741       -0.09781
H         -1.16660       -0.63200        1.35837
H         -0.95003        0.40630        2.73205
H          2.75505        0.76399        0.45100
10 10 10 10 10 10 10 10 10 10 10 10 10 10 10 10 10 10 10 10 10 10 10 10 10
C(C(=O)N)O
InChI=1S/C2H5NO2/c3-2(5)1-4/h4H,1H2,(H2,3,5)
