20
metacyc CPD-14005  -165.871424848 -165.871424848 -165.871424848 -165.871424848 -165.871424848 -165.871424848 -165.871424848 -165.871424848 -165.871424848 -165.871424848 -165.871424848 -165.871424848 -165.871424848 -165.871424848 -165.871424848
C          0.96187        0.34218       -0.47060
O          0.40730       -0.62905       -1.05269
O          0.44214        1.32777        0.13018
C          2.49077        0.37924       -0.49129
C          3.24244       -0.57362       -1.06721
C          4.71578       -0.56534       -1.14361
C          5.42816        0.64500       -1.19213
C          6.82043        0.66246       -1.32111
C          7.51174       -0.53923       -1.41391
O          8.86854       -0.56501       -1.56155
C          6.83833       -1.75334       -1.37312
C          5.44597       -1.76211       -1.24661
O          4.78804       -2.96448       -1.22401
H          2.92957        1.23900        0.00273
H          2.74567       -1.43151       -1.51949
H          4.89466        1.59177       -1.14560
H          7.33198        1.61829       -1.35375
H          9.17660        0.35280       -1.64014
H          7.40278       -2.67536       -1.45099
H          5.43718       -3.68182       -1.25832
20 20 20 20 20 20 20 20 20 20 20 20 20 20 20 20 20 20 20 20 20 20 20 20 20 20 20 20 20 20 20 20 20 20 20 20 20 20 20 20 20 20 20 20 20 20 20 20 20 20 20 20 20 20 20
C([O-])(=O)C=CC1(C=CC(O)=CC(O)=1)
InChI=1S/C9H8O4/c10-7-3-1-6(8(11)5-7)2-4-9(12)13/h1-5,10-11H,(H,12,13)/p-1/b4-2+
