16
metacyc CPD-14442  -276.70557648 -276.70557648 -276.70557648 -276.70557648 -276.70557648 -276.70557648 -276.70557648 -276.70557648 -276.70557648 -276.70557648 -276.70557648 -276.70557648 -276.70557648 -276.70557648 -276.70557648
C          0.86737        0.00988       -0.05671
C          2.38628       -0.04755        0.02242
O          2.91202       -0.16561       -1.30009
C          2.97963        1.15719        0.67831
C          4.29345        1.44722        0.75705
O          5.25614        0.61313        0.19021
C          4.77865        2.75607        1.50798
O          3.84999        3.51779        1.91834
O          6.02969        2.90217        1.60764
H          0.47972       -0.87769       -0.56916
H          0.52820        0.87891       -0.63153
H          0.41986        0.05472        0.94175
H          2.67454       -0.94702        0.57618
H          2.98506        0.74752       -1.63954
H          2.28654        1.85070        1.15398
H          4.79292       -0.05637       -0.34183
16 16 16 16 16 16 16 16 16 16 16 16 16 16 16 16 16 16 16 16 16 16 16 16 16 16 16 16 16 16 16 16 16 16 16 16 16 16 16 16 16 16 16
CC(O)C=C(O)C([O-])=O
InChI=1S/C5H8O4/c1-3(6)2-4(7)5(8)9/h2-3,6-7H,1H3,(H,8,9)/p-1/b4-2-
