29
metacyc CPD-20758  -195.7589 -195.7589 -195.7589 -195.7589 -195.7589 -195.7589 -195.7589 -195.7589 -195.7589 -195.7589 -195.7589 -195.7589 -195.7589 -195.7589 -195.7589
C          5.65473       -3.31699       -3.57785
C          4.96033       -2.82542       -2.33639
O          4.24159       -3.55915       -1.66429
N          5.20007       -1.50978       -2.07084
C          4.68934       -0.73637       -0.91851
C          5.29605       -1.26980        0.38795
C          4.79565       -0.55633        1.64985
C          5.39800       -1.17950        2.90993
O          6.85274       -1.11215        2.87522
C          4.77186       -0.67013        4.25449
O          4.51347        0.37084        4.81167
N          4.54112       -1.94767        4.67502
C          4.77973       -2.54035        3.35208
C          5.06882        0.77705       -1.08041
O          6.10530        0.97586       -1.78846
O          4.29251        1.60550       -0.53070
H          5.91720       -4.37136       -3.45218
H          6.57867       -2.75928       -3.76315
H          4.98563       -3.20490       -4.43422
H          5.81818       -0.94613       -2.65380
H          3.59896       -0.84840       -0.90790
H          6.39049       -1.20425        0.33319
H          5.06979       -2.33921        0.48233
H          3.70004       -0.60089        1.68573
H          5.07323        0.50238        1.62295
H          7.04052       -0.16634        2.72988
H          3.77462       -2.10385        5.31333
H          3.85054       -2.84181        2.85892
H          5.47447       -3.38375        3.38973
29 29 29 29 29 29 29 29 29 29 29 29 29 29 29 29 29 29 29 29 29 29 29 29 29 29 29 29 29 29 29 29 29 29 29 29 29 29 29 29 29 29 29 29 29 29 29 29 29 29 29 29 29 29 29 29 29 29 29 29 29 29 29 29 29 29 29 29 29 29 29 29 29 29 29 29 29 29 29 29 29 29
CC(=O)NC(CCC1(O)(C(=O)NC1))C(=O)[O-]
InChI=1S/C9H14N2O5/c1-5(12)11-6(7(13)14)2-3-9(16)4-10-8(9)15/h6,16H,2-4H2,1H3,(H,10,15)(H,11,12)(H,13,14)/p-1/t6-,9-/m0/s1
