28
metacyc CPD-20486  -39.780145672 -39.780145672 -39.780145672 -39.780145672 -39.780145672 -39.780145672 -39.780145672 -39.780145672 -39.780145672 -39.780145672 -39.780145672 -39.780145672 -39.780145672 -39.780145672 -39.780145672
C          9.68709       -2.45230        1.21821
C          8.52488       -2.21185        2.18975
C          7.39111       -3.25653        1.83125
C          6.31503       -2.15769        1.83194
C          5.57882       -1.83212        0.55511
N          4.66900       -0.83161        0.71961
N          5.71628       -2.50794       -0.52971
C          6.63241       -3.52694       -0.61429
O          6.79741       -4.16335       -1.64202
N          7.41306       -3.85834        0.47576
C          7.29823       -1.26507        2.46866
N          7.65545        0.12606        2.35108
C          8.56428        0.52120        3.33354
O          8.44273        1.56845        3.95168
N          9.55802       -0.43567        3.58547
C          9.24630       -1.81722        3.56489
O          9.42851       -2.55357        4.53203
H         10.10399       -3.45170        1.42796
H         10.52217       -1.76117        1.36029
H          9.41347       -2.41980        0.16342
H          7.25721       -4.03096        2.59264
H          5.53450       -2.45240        2.56188
H          4.61988       -0.37897        1.63445
H          3.72161       -1.10841        0.43279
H          8.06133       -4.59842        0.23059
H          6.96915       -1.33219        3.52845
H          7.71243        0.63185        1.47071
H         10.18165       -0.27707        2.80331
28 28 28 28 28 28 28 28 28 28 28 28 28 28 28 28 28 28 28 28 28 28 28 28 28 28 28 28 28 28 28 28 28 28 28 28 28 28 28 28 28 28 28 28 28 28 28 28 28 28 28 28 28 28 28 28 28 28 28 28 28 28 28 28 28 28 28 28 28 28 28 28 28 28 28 28 28 28 28
CC23(C1(C(C(N)=NC(=O)N1)C(NC(=O)NC(=O)2)3))
InChI=1S/C9H11N5O3/c1-9-3-2(5(10)13-7(16)11-3)4(9)12-8(17)14-6(9)15/h2-4H,1H3,(H3,10,11,13,16)(H2,12,14,15,17)
