24
metacyc CPD-15620  -387.884272144 -387.884272144 -387.884272144 -387.884272144 -387.884272144 -387.884272144 -387.884272144 -387.884272144 -387.884272144 -387.884272144 -387.884272144 -387.884272144 -387.884272144 -387.884272144 -387.884272144
C          0.98369        0.26047       -0.00744
O          0.44243        0.21534       -1.32782
C          2.51465        0.11038       -0.04879
O          3.10796        1.16126       -0.81707
C          3.12803        0.09672        1.36026
O          2.64122       -1.00352        2.14688
C          4.67594        0.09618        1.41638
O          5.04962        0.13911        2.81077
C          5.35492       -1.12963        0.78465
O          5.01169       -1.30375       -0.58316
C          6.86352       -0.98001        0.93070
H          7.24946       -1.01806        1.96331
O          7.61305       -0.82171       -0.02945
H          0.51520       -0.53472        0.58030
H          0.69691        1.22696        0.41800
H          0.81938       -0.56007       -1.78159
H          2.71867       -0.83058       -0.56749
H          2.52352        1.93995       -0.77080
H          2.79787        1.00185        1.88759
H          2.73574       -1.81809        1.61886
H          5.05649        1.01301        0.95003
H          4.34186       -0.33117        3.29907
H          5.07647       -2.04528        1.31575
H          5.55350       -0.66651       -1.09497
24 24 24 24 24 24 24 24 24 24 24 24 24 24 24 24 24 24 24 24 24 24 24 24 24 24 24 24 24 24 24 24 24 24 24 24 24 24 24 24 24 24 24 24 24 24 24 24 24 24 24 24 24 24 24 24 24 24 24 24 24 24 24 24 24 24 24
C(O)C(O)C(O)C(O)C(O)[CH]=O
InChI=1S/C6H12O6/c7-1-3(9)5(11)6(12)4(10)2-8/h1,3-6,8-12H,2H2/t3-,4+,5-,6-/m0/s1
