23
metacyc CPD-18319  -230.319526592 -230.319526592 -230.319526592 -230.319526592 -230.319526592 -230.319526592 -230.319526592 -230.319526592 -230.319526592 -230.319526592 -230.319526592 -230.319526592 -230.319526592 -230.319526592 -230.319526592
C          0.97022        0.25827        0.04738
N          0.37895        0.17516       -1.28870
C         -0.97223        0.16007       -1.50693
O         -1.83385        0.25564       -0.64579
C         -1.37364        0.07478       -2.92757
O         -0.49622       -0.65830       -3.80487
C         -1.78030       -1.24907       -3.51190
C         -2.74619       -1.27334       -4.62806
O         -3.95342       -1.24120       -4.43781
N         -2.20800       -1.33707       -5.87880
C          1.23546       -1.11010        0.66349
N          2.22486       -1.84983       -0.13525
C          1.82047       -0.94613        2.08046
O          2.50444        0.09797        2.29440
O          1.52587       -1.87305        2.89311
H          0.29647        0.83872        0.68924
H          1.89370        0.83844       -0.06905
H          0.99501       -0.06696       -2.05448
H         -1.85622        0.96373       -3.31365
H         -1.80195       -2.11088       -2.85624
H         -1.20753       -1.28121       -6.01517
H         -2.83000       -1.30118       -6.67382
H          0.30950       -1.69349        0.70863
23 23 23 23 23 23 23 23 23 23 23 23 23 23 23 23 23 23 23 23 23 23 23 23 23 23 23 23 23 23 23 23 23 23 23 23 23 23 23 23 23 23 23 23 23 23 23 23 23 23 23 23 23 23 23 23 23 23 23 23 23 23 23 23
C(NC(=O)C1(OC(C(=O)N)1))C([N+])C(=O)[O-]
InChI=1S/C7H11N3O5/c8-2(7(13)14)1-10-6(12)4-3(15-4)5(9)11/h2-4H,1,8H2,(H2,9,11)(H,10,12)(H,13,14)/t2-,3+,4+/m0/s1
