25
metacyc CPD-8878  -379.57683136 -379.57683136 -379.57683136 -379.57683136 -379.57683136 -379.57683136 -379.57683136 -379.57683136 -379.57683136 -379.57683136 -379.57683136 -379.57683136 -379.57683136 -379.57683136 -379.57683136
C          3.35896       -0.56634        2.99510
C          3.45086       -0.52663        1.47858
C          4.52249       -1.46064        0.96871
O          5.36812       -2.01857        1.65348
O          4.33905       -1.64795       -0.40269
C          4.82246       -2.85948       -0.92850
C          5.50522       -2.93083       -2.15354
N          5.89907       -1.72678       -2.90253
O          5.63899       -0.61550       -2.42227
O          6.48070       -1.89487       -3.98564
C          5.81756       -4.19112       -2.70492
C          5.43554       -5.35846       -2.02530
N          5.70305       -6.67681       -2.61479
O          6.25612       -6.70756       -3.72149
O          5.34501       -7.67592       -1.97646
C          4.76616       -5.28669       -0.80055
C          4.45012       -4.04106       -0.26659
H          2.55133        0.08175        3.34838
H          4.29502       -0.23296        3.45444
H          3.15844       -1.58380        3.35012
H          3.66212        0.48781        1.13125
H          2.48906       -0.85620        1.06795
H          6.33412       -4.26324       -3.66171
H          4.46659       -6.18132       -0.25744
H          3.90005       -4.00305        0.67201
25 25 25 25 25 25 25 25 25 25 25 25 25 25 25 25 25 25 25 25 25 25 25 25 25 25 25 25 25 25 25 25 25 25 25 25 25 25 25 25 25 25 25 25 25 25 25 25 25 25 25 25 25 25 25 25 25 25 25 25 25 25 25 25 25 25 25 25 25 25
CCC(=O)OC1(=C([N+](=O)[O-])C=C([N+](=O)[O-])C=C1)
InChI=1S/C9H8N2O6/c1-2-9(12)17-8-4-3-6(10(13)14)5-7(8)11(15)16/h3-5H,2H2,1H3
