12
metacyc CPD-389  -514.62660264 -514.62660264 -514.62660264 -514.62660264 -514.62660264 -514.62660264 -514.62660264 -514.62660264 -514.62660264 -514.62660264 -514.62660264 -514.62660264 -514.62660264 -514.62660264 -514.62660264
C          1.07256       -0.08693       -0.20763
O          0.30246        0.53492        0.58474
O          0.74822       -0.84770       -1.18026
C          2.60356        0.04864       -0.03087
O          3.03239        0.76049        0.87883
N          3.38713       -0.66129       -0.93509
C          4.74432       -0.73235       -1.02409
O          5.32575       -1.39680       -1.87630
N          5.43510       -0.01791       -0.10628
H          2.83553       -1.18658       -1.60909
H          4.91736        0.52541        0.58142
H          6.44062       -0.01971       -0.11376
12 12 12 12 12 12 12 12 12 12 12 12 12 12 12 12 12 12 12 12 12 12 12 12 12 12 12 12 12 12 12
C([O-])(=O)C(=O)NC(=O)N
InChI=1S/C3H4N2O4/c4-3(9)5-1(6)2(7)8/h(H,7,8)(H3,4,5,6,9)/p-1
