20
metacyc CPD-403  -34.489101112 -34.489101112 -34.489101112 -34.489101112 -34.489101112 -34.489101112 -34.489101112 -34.489101112 -34.489101112 -34.489101112 -34.489101112 -34.489101112 -34.489101112 -34.489101112 -34.489101112
C          0.97088        0.07584       -0.12535
C          2.46346        0.05937       -0.02566
C          3.20208        1.24521       -0.04146
C          4.60166        1.21369        0.03258
C          5.31284       -0.00070        0.12705
C          4.56754       -1.18821        0.19580
C          3.16417       -1.13831        0.09444
O          2.49478       -2.33816        0.13683
N          5.17119       -2.48823        0.14039
C          6.82834        0.01521        0.16962
O          7.40657        1.14601        0.14475
O          7.41449       -1.11787        0.22515
H          0.59218        1.08832       -0.30174
H          0.52470       -0.29354        0.80343
H          0.63694       -0.54872       -0.96071
H          2.70556        2.20776       -0.12118
H          5.16137        2.14886        0.00709
H          3.23173       -2.96246        0.32319
H          6.16574       -2.32230        0.42416
H          5.26883       -2.72716       -0.84644
20 20 20 20 20 20 20 20 20 20 20 20 20 20 20 20 20 20 20 20 20 20 20 20 20 20 20 20 20 20 20 20 20 20 20 20 20 20 20 20 20 20 20 20 20 20 20 20 20 20 20 20 20 20 20
CC1(=CC=C(C(=C1O)N)C([O-])=O)
InChI=1S/C8H9NO3/c1-4-2-3-5(8(11)12)6(9)7(4)10/h2-3,10H,9H2,1H3,(H,11,12)/p-1
