16
metacyc CPD-3572  -364.94613648 -364.94613648 -364.94613648 -364.94613648 -364.94613648 -364.94613648 -364.94613648 -364.94613648 -364.94613648 -364.94613648 -364.94613648 -364.94613648 -364.94613648 -364.94613648 -364.94613648
C          1.23122        0.54142        1.26029
O          2.64572        0.45046        1.12674
C          3.16169        1.27673        0.17297
O          2.49260        1.90113       -0.64386
C          4.67139        1.23413        0.18266
C          5.26922        2.62776        0.28990
C          4.90751        3.33188        1.59750
O          4.61331        2.58182        2.56708
O          4.97355        4.59268        1.54936
H          0.93345       -0.05204        2.12929
H          0.74037        0.12761        0.37423
H          0.91763        1.57677        1.42894
H          4.99203        0.75141       -0.74691
H          5.02172        0.59537        1.00279
H          4.93761        3.24559       -0.55251
H          6.36152        2.55993        0.24015
16 16 16 16 16 16 16 16 16 16 16 16 16 16 16 16 16 16 16 16 16 16 16 16 16 16 16 16 16 16 16 16 16 16 16 16 16 16 16 16 16 16 16
COC(=O)CCC(=O)[O-]
InChI=1S/C5H8O4/c1-9-5(8)3-2-4(6)7/h2-3H2,1H3,(H,6,7)/p-1
