16
metacyc CPD-19117  -269.47269568 -269.47269568 -269.47269568 -269.47269568 -269.47269568 -269.47269568 -269.47269568 -269.47269568 -269.47269568 -269.47269568 -269.47269568 -269.47269568 -269.47269568 -269.47269568 -269.47269568
C         -0.68653       -1.66669        0.10394
C          0.40791       -0.76012       -0.39786
N          1.72274       -0.75504        0.15973
C          2.18576        0.52789        0.31075
O          3.35317        0.81386        0.49879
N          1.12999        1.40454        0.22612
C          0.12020        0.66270       -0.06722
N         -1.15726        1.09669       -0.07840
C         -2.21312        0.24191        0.08004
O         -3.33118        0.65171        0.37332
N         -1.94343       -1.10262        0.02818
O         -0.50855       -2.82089        0.47742
H          0.49554       -0.87216       -1.48406
H          2.38304       -1.51833        0.10585
H         -1.33205        2.06697        0.15250
H         -2.70956       -1.69616        0.31968
16 16 16 16 16 16 16 16 16 16 16 16 16 16 16 16 16 16 16 16 16 16 16 16 16 16 16 16 16 16 16 16 16 16 16 16 16 16 16 16 16 16 16
C2(C1(NC(=O)N=C1NC(=O)N2))(=O)
InChI=1S/C5H4N4O3/c10-3-1-2(7-4(11)6-1)8-5(12)9-3/h1H,(H3,6,7,8,9,10,11,12)
