15
metacyc CPD-13930  -81.84807744 -81.84807744 -81.84807744 -81.84807744 -81.84807744 -81.84807744 -81.84807744 -81.84807744 -81.84807744 -81.84807744 -81.84807744 -81.84807744 -81.84807744 -81.84807744 -81.84807744
C          1.04494        0.04528        0.20485
C          2.53886        0.03467        0.05376
C          3.18659       -0.06649       -1.12020
N          2.66685       -0.19483       -2.38527
C          3.27557        0.12113        1.35758
O          2.69330        0.19198        2.43238
O          4.62967        0.10712        1.17193
O          5.25866        0.16539        2.49002
H          0.51787        0.00712       -0.75223
H          0.71894        0.95830        0.71580
H          0.71555       -0.81807        0.79285
H          4.27510       -0.07564       -1.15841
H          1.69702        0.08768       -2.49860
H          3.26896        0.14132       -3.13395
H          6.17432        0.08426        2.17477
15 15 15 15 15 15 15 15 15 15 15 15 15 15 15 15 15 15 15 15 15 15 15 15 15 15 15 15 15 15 15 15 15 15 15 15 15 15 15 15
CC(=CN)C(=O)OO
InChI=1S/C4H7NO3/c1-3(2-5)4(6)8-7/h2,7H,5H2,1H3/b3-2-
