15
metacyc CPD-14435  -539.75169 -539.75169 -539.75169 -539.75169 -539.75169 -539.75169 -539.75169 -539.75169 -539.75169 -539.75169 -539.75169 -539.75169 -539.75169 -539.75169 -539.75169
C          1.05170       -0.03057       -0.01284
C          2.53705       -0.13202       -0.09975
C          3.26096       -1.17076       -0.57767
C          2.60518       -2.43838       -1.02868
C          3.27649       -3.40508       -2.02924
O          3.24749       -4.65444       -1.74620
O          3.66342       -2.89459       -3.13529
O          1.45596       -2.74657       -0.69300
C          4.79796       -1.05671       -0.57047
O          5.26055        0.12922       -0.63559
O          5.43902       -2.11819       -0.33441
H          0.77596        0.95556        0.37530
H          0.63862       -0.77329        0.67507
H          0.59071       -0.13261       -0.99990
H          3.08437        0.74404        0.24445
15 15 15 15 15 15 15 15 15 15 15 15 15 15 15 15 15 15 15 15 15 15 15 15 15 15 15 15 15 15 15 15 15 15 15 15 15 15 15 15
CC=C(C(C([O-])=O)=O)C([O-])=O
InChI=1S/C6H6O5/c1-2-3(5(8)9)4(7)6(10)11/h2H,1H3,(H,8,9)(H,10,11)/p-2/b3-2+
