24
metacyc CPD-18795  -229.31064704 -229.31064704 -229.31064704 -229.31064704 -229.31064704 -229.31064704 -229.31064704 -229.31064704 -229.31064704 -229.31064704 -229.31064704 -229.31064704 -229.31064704 -229.31064704 -229.31064704
C          0.94741       -0.17113       -0.01127
O          0.39898       -1.48085        0.04401
C          2.46119       -0.18857       -0.02335
C          3.10104        1.16995        0.03993
O          2.52334        1.96880       -0.99647
C          4.65568        1.24527       -0.00411
O          5.11517        1.87633       -1.21562
C          5.44115       -0.06962        0.23203
O          6.08011       -0.11230        1.52740
C          4.67070       -1.39593        0.04246
O          4.94697       -2.28400        1.13149
C          3.18986       -1.31669       -0.03759
H          0.58189        0.38145        0.86126
H          0.55902        0.31047       -0.91292
H          0.65974       -1.85810        0.90135
H          2.78469        1.61916        0.99025
H          2.93597        1.69839       -1.83707
H          4.94325        1.95704        0.78164
H          5.03920        1.25002       -1.95018
H          6.27771       -0.09336       -0.47911
H          5.73814        0.60072        2.08299
H          5.02768       -1.88861       -0.86865
H          5.58213       -1.80007        1.70242
H          2.69230       -2.28343       -0.09434
24 24 24 24 24 24 24 24 24 24 24 24 24 24 24 24 24 24 24 24 24 24 24 24 24 24 24 24 24 24 24 24 24 24 24 24 24 24 24 24 24 24 24 24 24 24 24 24 24 24 24 24 24 24 24 24 24 24 24 24 24 24 24 24 24 24 24
C(O)C1(C(O)C(O)C(O)C(O)C=1)
InChI=1S/C7H12O5/c8-2-3-1-4(9)6(11)7(12)5(3)10/h1,4-12H,2H2/t4-,5+,6-,7-/m0/s1
