16
metacyc CPD-18013  -368.74960168 -368.74960168 -368.74960168 -368.74960168 -368.74960168 -368.74960168 -368.74960168 -368.74960168 -368.74960168 -368.74960168 -368.74960168 -368.74960168 -368.74960168 -368.74960168 -368.74960168
C          0.64767        1.20091       -0.25001
C         -0.78734        1.25459        0.27620
O         -1.45931        2.41617       -0.19359
C         -1.46478       -0.05745       -0.11291
N         -0.70073       -1.18608        0.05651
C          0.66089       -1.22917        0.06491
O          1.27816       -2.28598        0.06562
N          1.30623       -0.03733        0.01091
O         -2.60823       -0.13666       -0.55593
O          0.67400        1.38910       -1.65694
H          1.24061        2.00781        0.19280
H         -0.78668        1.29149        1.37260
H         -1.40189        2.38871       -1.16866
H         -1.15981       -2.06990       -0.11497
H          2.31576       -0.08741       -0.05354
H          0.72702        0.50350       -2.05384
16 16 16 16 16 16 16 16 16 16 16 16 16 16 16 16 16 16 16 16 16 16 16 16 16 16 16 16 16 16 16 16 16 16 16 16 16 16 16 16 16 16 16
C1(C(O)C(NC(=O)N1)=O)(O)
InChI=1S/C4H6N2O4/c7-1-2(8)5-4(10)6-3(1)9/h1-2,7-8H,(H2,5,6,9,10)
