19
metacyc CPD-19404  -259.634864848 -259.634864848 -259.634864848 -259.634864848 -259.634864848 -259.634864848 -259.634864848 -259.634864848 -259.634864848 -259.634864848 -259.634864848 -259.634864848 -259.634864848 -259.634864848 -259.634864848
C          1.03547       -0.02051       -0.01302
C          2.52655       -0.11741        0.10989
C          3.24961       -1.31325        0.13992
O          2.64715       -2.54977        0.10865
C          4.65869       -1.32532        0.21849
O          5.25645       -2.55538        0.27929
C          5.38983       -0.13651        0.27031
C          4.65270        1.06389        0.24342
C          3.25470        1.07704        0.16087
C          6.90103       -0.04900        0.35664
O          7.37150        1.03201        0.84608
O          7.60809       -1.00389       -0.09509
H          0.52896       -0.98569        0.05366
H          0.77041        0.42377       -0.97832
H          0.63415        0.60942        0.78831
H          1.74692       -2.44544        0.44982
H          4.53877       -3.19060        0.11941
H          5.19365        2.01005        0.28513
H          2.74735        2.03789        0.13350
19 19 19 19 19 19 19 19 19 19 19 19 19 19 19 19 19 19 19 19 19 19 19 19 19 19 19 19 19 19 19 19 19 19 19 19 19 19 19 19 19 19 19 19 19 19 19 19 19 19 19 19
CC1(C(O)=C(O)C(=CC=1)C(=O)[O-])
InChI=1S/C8H8O4/c1-4-2-3-5(8(11)12)7(10)6(4)9/h2-3,9-10H,1H3,(H,11,12)/p-1
