20
metacyc CPD-15818  -321.4516992 -321.4516992 -321.4516992 -321.4516992 -321.4516992 -321.4516992 -321.4516992 -321.4516992 -321.4516992 -321.4516992 -321.4516992 -321.4516992 -321.4516992 -321.4516992 -321.4516992
C          2.82234        1.46586        0.29785
H          2.81495        1.77027        1.35763
O          3.13672        2.25995       -0.58964
C          2.36338        0.04448        0.02090
O          0.93436        0.04426        0.02269
C          2.88637       -0.46496       -1.33735
O          2.36500        0.34767       -2.40097
C          4.41988       -0.54986       -1.37825
O          4.85781       -1.43811       -0.34073
C          4.94118       -1.02744       -2.73842
O          6.36731       -1.15553       -2.66500
H          2.70968       -0.59131        0.84142
H          0.66216        0.32816       -0.87320
H          2.46873       -1.46841       -1.49424
H          2.63081        1.27495       -2.21538
H          4.87905        0.42366       -1.17281
H          5.49566       -2.05817       -0.74913
H          4.68886       -0.33651       -3.54698
H          4.54796       -2.01959       -2.97927
H          6.73403       -0.26514       -2.53164
20 20 20 20 20 20 20 20 20 20 20 20 20 20 20 20 20 20 20 20 20 20 20 20 20 20 20 20 20 20 20 20 20 20 20 20 20 20 20 20 20 20 20 20 20 20 20 20 20 20 20 20 20 20 20
[CH](=O)C(O)C(O)C(O)CO
InChI=1S/C5H10O5/c6-1-3(8)5(10)4(9)2-7/h1,3-5,7-10H,2H2/t3-,4+,5-/m0/s1
