16
metacyc CPD-8983  -450.81194176 -450.81194176 -450.81194176 -450.81194176 -450.81194176 -450.81194176 -450.81194176 -450.81194176 -450.81194176 -450.81194176 -450.81194176 -450.81194176 -450.81194176 -450.81194176 -450.81194176
C         -0.63560       -1.23715       -0.02946
C         -1.39341       -0.05799       -0.07811
N         -2.86106       -0.13968       -0.11498
O         -3.37301       -1.26695       -0.11351
O         -3.49254        0.92438       -0.14606
C         -0.76455        1.19617       -0.09483
C          0.64022        1.25796       -0.06507
N          1.30047        2.56379       -0.08858
O          0.56949        3.56343       -0.13797
O          2.53518        2.60800       -0.05920
C          1.39424        0.08409       -0.01674
F          2.73277        0.09107        0.01257
C          0.75875       -1.15863        0.00165
H         -1.11149       -2.21704       -0.01603
H         -1.35844        2.10922       -0.13194
H          1.36100       -2.06389        0.03913
16 16 16 16 16 16 16 16 16 16 16 16 16 16 16 16 16 16 16 16 16 16 16 16 16 16 16 16 16 16 16 16 16 16 16 16 16 16 16 16 16 16 16
C1(C([N+](=O)[O-])=CC([N+](=O)[O-])=C(F)C=1)
InChI=1S/C6H3FN2O4/c7-5-2-1-4(8(10)11)3-6(5)9(12)13/h1-3H
