16
metacyc CPD-1131  -133.62214864 -133.62214864 -133.62214864 -133.62214864 -133.62214864 -133.62214864 -133.62214864 -133.62214864 -133.62214864 -133.62214864 -133.62214864 -133.62214864 -133.62214864 -133.62214864 -133.62214864
C          1.06302        0.13607       -0.00893
H          0.45390       -0.77346       -0.07240
O          0.50336        1.23129        0.08543
C          2.54454        0.03181       -0.07822
C          3.25630        1.24874       -0.09986
C          4.64623        1.27112       -0.20863
C          5.34568        0.07577       -0.30029
C          4.65148       -1.13542       -0.27803
C          3.24182       -1.18615       -0.16250
C          2.58758       -2.54558       -0.12372
O          1.46670       -2.64306        0.46286
O          3.22124       -3.50371       -0.66624
H          2.71756        2.19272       -0.03793
H          5.17582        2.21929       -0.22645
H          6.42744        0.07403       -0.38907
H          5.20661       -2.07044       -0.34939
16 16 16 16 16 16 16 16 16 16 16 16 16 16 16 16 16 16 16 16 16 16 16 16 16 16 16 16 16 16 16 16 16 16 16 16 16 16 16 16 16 16 16
[CH](=O)C1(C=CC=CC=1C([O-])=O)
InChI=1S/C8H6O3/c9-5-6-3-1-2-4-7(6)8(10)11/h1-5H,(H,10,11)/p-1
