21
metacyc CPD-18129  -367.33105832 -367.33105832 -367.33105832 -367.33105832 -367.33105832 -367.33105832 -367.33105832 -367.33105832 -367.33105832 -367.33105832 -367.33105832 -367.33105832 -367.33105832 -367.33105832 -367.33105832
C          0.98103        1.21108       -0.07717
O          0.49790        0.42550       -1.15603
C          2.47187        1.21111       -0.10449
C          3.24815        0.73744        0.88367
C          4.70774        0.75381        0.86413
C          5.37203       -0.17179        1.57648
C          6.84565       -0.22561        1.62826
O          7.38887       -1.11554        2.27983
O          7.53669        0.72055        0.93807
C          6.83799        1.73242        0.22973
C          7.68953        2.81105       -0.49679
O          8.94126        2.68486       -0.38235
O          7.02948        3.69363       -1.12217
C          5.49975        1.76500        0.19447
H          0.58083        0.79858        0.85395
H          0.60106        2.23036       -0.19275
H          1.03270       -0.38663       -1.17419
H          2.92254        1.63993       -0.99829
H          2.78202        0.30355        1.76671
H          4.87315       -0.95226        2.13602
H          4.99781        2.56884       -0.33761
21 21 21 21 21 21 21 21 21 21 21 21 21 21 21 21 21 21 21 21 21 21 21 21 21 21 21 21 21 21 21 21 21 21 21 21 21 21 21 21 21 21 21 21 21 21 21 21 21 21 21 21 21 21 21 21 21 21
C(O)C=CC1(=CC(=O)OC(C([O-])=O)=C1)
InChI=1S/C9H8O5/c10-3-1-2-6-4-7(9(12)13)14-8(11)5-6/h1-2,4-5,10H,3H2,(H,12,13)/p-1/b2-1+
