33
metacyc CPD-9190  -686.70008784 -686.70008784 -686.70008784 -686.70008784 -686.70008784 -686.70008784 -686.70008784 -686.70008784 -686.70008784 -686.70008784 -686.70008784 -686.70008784 -686.70008784 -686.70008784 -686.70008784
C          2.30936       -0.08686        1.77825
O          1.32094       -0.81020        2.50539
C          1.72585        0.67998        0.59306
O          2.82060        1.42090       -0.03012
C          2.39373        2.24134       -1.11444
O          1.47191        3.26409       -0.70429
C          2.02652        4.13513        0.30232
C          0.88229        5.01227        0.80978
O         -0.11690        4.20465        1.41402
C          3.16122        4.94501       -0.32066
O          2.64354        5.78957       -1.37043
C          4.22731        3.97829       -0.87085
O          5.22765        4.72380       -1.58808
C          3.61295        2.90749       -1.79488
O          3.25113        3.55537       -3.03562
C          1.02959       -0.30600       -0.39066
O          1.33847       -1.52718       -0.27435
O          0.18967        0.22642       -1.17462
H          3.10155       -0.78144        1.46807
H          2.78295        0.61728        2.47206
H          0.99871       -1.47328        1.85257
H          0.97134        1.38128        0.96858
H          1.90817        1.64172       -1.88823
H          2.39173        3.53036        1.14261
H          0.39902        5.55970       -0.00512
H          1.23594        5.73063        1.55773
H         -0.26633        3.44528        0.80398
H          3.61863        5.61190        0.41586
H          1.98221        5.26264       -1.85377
H          4.72727        3.48722       -0.02843
H          4.74604        5.02108       -2.39518
H          4.38388        2.16380       -2.03715
H          2.28332        3.46354       -3.13050
33 33 33 33 33 33 33 33 33 33 33 33 33 33 33 33 33 33 33 33 33 33 33 33 33 33 33 33 33 33 33 33 33 33 33 33 33 33 33 33 33 33 33 33 33 33 33 33 33 33 33 33 33 33 33 33 33 33 33 33 33 33 33 33 33 33 33 33 33 33 33 33 33 33 33 33 33 33 33 33 33 33 33 33 33 33 33 33 33 33 33 33 33 33
C(O)C(OC1(OC(CO)C(O)C(O)C(O)1))C(=O)[O-]
InChI=1S/C9H16O9/c10-1-3-5(12)6(13)7(14)9(17-3)18-4(2-11)8(15)16/h3-7,9-14H,1-2H2,(H,15,16)/p-1/t3-,4?,5-,6+,7-,9-/m1/s1
