16
metacyc CPD-703  -52.611293784 -52.611293784 -52.611293784 -52.611293784 -52.611293784 -52.611293784 -52.611293784 -52.611293784 -52.611293784 -52.611293784 -52.611293784 -52.611293784 -52.611293784 -52.611293784 -52.611293784
C          1.07192       -0.06129        0.11881
O          0.40836        0.96491        0.18654
C          2.54154       -0.03283       -0.03008
C          3.21569        1.19217       -0.10028
C          4.60453        1.21746       -0.25509
C          5.31141        0.00956       -0.33880
C          4.63772       -1.21930       -0.26067
C          3.24782       -1.23819       -0.10586
N          6.76959        0.02970       -0.51742
O          7.32605        1.13381       -0.59275
O          7.35497       -1.06048       -0.58522
H          0.59854       -1.05659        0.16303
H          2.66090        2.12754       -0.03805
H          5.11355        2.17801       -0.31150
H          5.17769       -2.16282       -0.32179
H          2.73101       -2.19378       -0.04920
16 16 16 16 16 16 16 16 16 16 16 16 16 16 16 16 16 16 16 16 16 16 16 16 16 16 16 16 16 16 16 16 16 16 16 16 16 16 16 16 16 16 16
C(=O)C1(C=CC(=CC=1)[N+]([O-])=O)
InChI=1S/C7H5NO3/c9-5-6-1-3-7(4-2-6)8(10)11/h1-5H
