16
metacyc CPD-9405  -307.66244856 -307.66244856 -307.66244856 -307.66244856 -307.66244856 -307.66244856 -307.66244856 -307.66244856 -307.66244856 -307.66244856 -307.66244856 -307.66244856 -307.66244856 -307.66244856 -307.66244856
C          2.93643       -1.26976        0.79747
C          2.49557       -1.63825        2.24692
O          1.27985       -1.47915        2.57662
O          3.38670       -2.24325        2.93723
N          2.51261       -0.04261        0.06251
C          2.94085        1.23053        0.68920
C          4.46326        1.47308        0.66975
C          5.05945        2.82552        1.12828
O          4.27310        3.75975        1.46867
O          6.33409        2.89051        1.08578
H          2.58041       -2.12949        0.21095
H          4.02754       -1.35467        0.75899
H          2.56793        1.32143        1.71656
H          2.47062        2.05882        0.14027
H          4.82587        1.31304       -0.35412
H          4.94277        0.70552        1.28881
16 16 16 16 16 16 16 16 16 16 16 16 16 16 16 16 16 16 16 16 16 16 16 16 16 16 16 16 16 16 16 16 16 16 16 16 16 16 16 16 16 16 16
C(C(=O)[O-])[N+]CCC([O-])=O
InChI=1S/C5H9NO4/c7-4(8)1-2-6-3-5(9)10/h6H,1-3H2,(H,7,8)(H,9,10)/p-1
