22
metacyc CPD-15492  -65.218869856 -65.218869856 -65.218869856 -65.218869856 -65.218869856 -65.218869856 -65.218869856 -65.218869856 -65.218869856 -65.218869856 -65.218869856 -65.218869856 -65.218869856 -65.218869856 -65.218869856
C         -0.22698       -0.01760       -2.07837
C          0.33384        0.88182       -0.95679
C         -0.77479        1.61825       -0.18180
O         -1.48168        2.52008       -1.05434
C         -1.80858        0.85155        0.63558
C         -1.86645       -0.54765        0.69748
C         -2.83042       -1.19469        1.47798
C         -3.74540       -0.44429        2.20659
O         -4.69237       -1.04602        2.98318
C         -3.71824        0.94133        2.16059
C         -2.75444        1.58441        1.37984
N          1.21512        0.12167       -0.05919
O         -1.27611        0.43829       -2.63671
O          0.40935       -1.06982       -2.36742
H          0.95129        1.62758       -1.47341
H         -0.26067        2.27041        0.53968
H         -1.73257        1.93825       -1.81883
H         -1.17551       -1.16742        0.13145
H         -2.84363       -2.27941        1.49113
H         -4.58319       -2.00519        2.87916
H         -4.44373        1.52268        2.71979
H         -2.74429        2.67161        1.33375
22 22 22 22 22 22 22 22 22 22 22 22 22 22 22 22 22 22 22 22 22 22 22 22 22 22 22 22 22 22 22 22 22 22 22 22 22 22 22 22 22 22 22 22 22 22 22 22 22 22 22 22 22 22 22 22 22 22 22 22 22
C(C(C(O)C1(C=CC(O)=CC=1))[N+])(=O)[O-]
InChI=1S/C9H11NO4/c10-7(9(13)14)8(12)5-1-3-6(11)4-2-5/h1-4,7-8,11-12H,10H2,(H,13,14)/t7-,8+/m0/s1
