20
metacyc CPD-15700  -321.4516992 -321.4516992 -321.4516992 -321.4516992 -321.4516992 -321.4516992 -321.4516992 -321.4516992 -321.4516992 -321.4516992 -321.4516992 -321.4516992 -321.4516992 -321.4516992 -321.4516992
C          2.98287       -0.09539       -1.53470
H          2.98134        0.85141       -2.09935
O          3.29417       -1.15946       -2.07547
C          2.52077        0.00049       -0.09021
O          1.09210        0.01731       -0.09000
C          3.03306       -1.18886        0.74853
O          2.50998       -2.42142        0.22920
C          4.56603       -1.20899        0.85030
O          4.99905        0.01775        1.45629
C          5.08910       -2.40697        1.65372
O          6.51289       -2.30432        1.76106
H          2.87481        0.95226        0.31818
H          0.80891       -0.91731       -0.14696
H          2.61154       -1.08495        1.75636
H          2.77750       -2.47452       -0.71503
H          5.02792       -1.24881       -0.14232
H          5.62469       -0.22240        2.16938
H          4.84099       -3.36706        1.19155
H          4.69344       -2.39322        2.67326
H          6.88111       -2.39627        0.86279
20 20 20 20 20 20 20 20 20 20 20 20 20 20 20 20 20 20 20 20 20 20 20 20 20 20 20 20 20 20 20 20 20 20 20 20 20 20 20 20 20 20 20 20 20 20 20 20 20 20 20 20 20 20 20
[CH](=O)C(O)C(O)C(O)CO
InChI=1S/C5H10O5/c6-1-3(8)5(10)4(9)2-7/h1,3-5,7-10H,2H2/t3-,4-,5+/m1/s1
