20
metacyc CPD-9369  -193.0533164 -193.0533164 -193.0533164 -193.0533164 -193.0533164 -193.0533164 -193.0533164 -193.0533164 -193.0533164 -193.0533164 -193.0533164 -193.0533164 -193.0533164 -193.0533164 -193.0533164
C          2.14458       -0.47775        1.06742
O          2.78719       -0.01049        2.05399
O          1.43427       -1.54017        1.06537
C          2.19239        0.27092       -0.28633
C          3.01473        1.55369       -0.53152
N          2.92235        2.02209       -1.95021
C          2.77156        3.52123       -1.93023
C          3.67669        4.38977       -2.87578
O          4.92348        4.46008       -2.63887
O          3.04417        5.06011       -3.76484
C          2.99368        3.94155       -0.47465
C          2.55071        2.73150        0.32440
H          1.14475        0.47328       -0.55166
H          2.53729       -0.48071       -1.01226
H          4.06489        1.34075       -0.29051
H          1.72836        3.75670       -2.19071
H          2.40746        4.83090       -0.21718
H          4.04456        4.16986       -0.26325
H          1.45962        2.73538        0.44409
H          2.99875        2.71980        1.32282
20 20 20 20 20 20 20 20 20 20 20 20 20 20 20 20 20 20 20 20 20 20 20 20 20 20 20 20 20 20 20 20 20 20 20 20 20 20 20 20 20 20 20 20 20 20 20 20 20 20 20 20 20 20 20
C([O-])(=O)CC1([N+]C(C(=O)[O-])CC1)
InChI=1S/C7H11NO4/c9-6(10)3-4-1-2-5(8-4)7(11)12/h4-5,8H,1-3H2,(H,9,10)(H,11,12)/p-1/t4-,5-/m0/s1
