15
metacyc CPD-110  -173.579340272 -173.579340272 -173.579340272 -173.579340272 -173.579340272 -173.579340272 -173.579340272 -173.579340272 -173.579340272 -173.579340272 -173.579340272 -173.579340272 -173.579340272 -173.579340272 -173.579340272
C          0.95962        0.02186        0.17519
C          0.28237       -0.22536       -1.15859
C          0.17810       -1.55513       -1.61946
C         -0.39147       -1.86244       -2.85669
C         -0.86864       -0.84034       -3.66865
C         -0.78890        0.48150       -3.23192
C         -0.22979        0.78318       -1.98207
O         -0.25675        2.08632       -1.57290
O          0.88912       -0.92639        1.02707
O          1.60261        1.10462        0.34639
H          0.55422       -2.35804       -0.98565
H         -0.46106       -2.89801       -3.17375
H         -1.31469       -1.07087       -4.63102
H         -1.18929        1.27032       -3.86014
H         -0.26582        2.65792       -2.35145
15 15 15 15 15 15 15 15 15 15 15 15 15 15 15 15 15 15 15 15 15 15 15 15 15 15 15 15 15 15 15 15 15 15 15 15 15 15 15 15
C(C1(=CC=CC=C1O))([O-])=O
InChI=1S/C7H6O3/c8-6-4-2-1-3-5(6)7(9)10/h1-4,8H,(H,9,10)/p-1
