23
metacyc CPD-19842  -230.900558672 -230.900558672 -230.900558672 -230.900558672 -230.900558672 -230.900558672 -230.900558672 -230.900558672 -230.900558672 -230.900558672 -230.900558672 -230.900558672 -230.900558672 -230.900558672 -230.900558672
C          0.86317        0.17862        0.03577
O          0.48999        1.52143        0.33488
C          2.38590        0.07322       -0.16011
C          2.86030       -1.35658       -0.44907
O          2.30397       -2.27881        0.48633
C          2.51301       -1.76532       -1.88776
O          3.04865       -3.06082       -2.16750
C          3.03760       -0.73657       -2.87455
C          2.51174        0.64264       -2.50095
O          3.07352        1.61962       -3.35294
O          2.85275        0.99451       -1.16673
H          0.31088       -0.11891       -0.85983
H          0.52579       -0.44864        0.86655
H          1.05932        2.09689       -0.21166
H          2.84676        0.40861        0.77721
H          3.95188       -1.40284       -0.33042
H          2.00518       -3.06569       -0.00711
H          1.43026       -1.86371       -2.00046
H          3.99381       -3.06756       -1.93702
H          2.75272       -0.99790       -3.90125
H          4.13530       -0.74133       -2.87152
H          1.42679        0.69471       -2.63263
H          4.02905        1.61259       -3.17432
23 23 23 23 23 23 23 23 23 23 23 23 23 23 23 23 23 23 23 23 23 23 23 23 23 23 23 23 23 23 23 23 23 23 23 23 23 23 23 23 23 23 23 23 23 23 23 23 23 23 23 23 23 23 23 23 23 23 23 23 23 23 23 23
C(O)C1(C(O)C(O)CC(O)O1)
InChI=1S/C6H12O5/c7-2-4-6(10)3(8)1-5(9)11-4/h3-10H,1-2H2/t3-,4-,5+,6+/m1/s1
