24
metacyc CPD-9666  -203.70456704 -203.70456704 -203.70456704 -203.70456704 -203.70456704 -203.70456704 -203.70456704 -203.70456704 -203.70456704 -203.70456704 -203.70456704 -203.70456704 -203.70456704 -203.70456704 -203.70456704
C          0.96934        0.27185        0.04427
O          0.60488        1.60964        0.35950
C          2.49905        0.14941       -0.05960
C          2.93947       -1.29216       -0.38503
O          2.29671       -2.20067        0.50636
C          2.62141       -1.69765       -1.83805
O          3.14787       -3.01926       -2.04277
C          3.20532       -0.71545       -2.85993
O          4.61864       -0.88824       -2.94695
C          2.76167        0.69766       -2.48036
O          2.15756        1.43361       -3.25458
C          3.09565        1.13662       -1.07027
H          0.46081       -0.02314       -0.87930
H          0.58697       -0.36346        0.84926
H          0.39162        2.06788       -0.47216
H          2.89640        0.41786        0.92882
H          4.01781       -1.39139       -0.20658
H          2.29994       -3.07375        0.06295
H          1.53669       -1.77573       -1.96563
H          4.02682       -2.91070       -2.46120
H          2.80907       -0.95467       -3.85144
H          5.05578       -0.48826       -2.17585
H          2.72846        2.15550       -0.91303
H          4.18666        1.17705       -0.97721
24 24 24 24 24 24 24 24 24 24 24 24 24 24 24 24 24 24 24 24 24 24 24 24 24 24 24 24 24 24 24 24 24 24 24 24 24 24 24 24 24 24 24 24 24 24 24 24 24 24 24 24 24 24 24 24 24 24 24 24 24 24 24 24 24 24 24
C(O)C1(C(O)C(O)C(O)C(=O)C1)
InChI=1S/C7H12O5/c8-2-3-1-4(9)6(11)7(12)5(3)10/h3,5-8,10-12H,1-2H2/t3-,5-,6+,7+/m1/s1
