21
metacyc CPD-12349  -535.60204064 -535.60204064 -535.60204064 -535.60204064 -535.60204064 -535.60204064 -535.60204064 -535.60204064 -535.60204064 -535.60204064 -535.60204064 -535.60204064 -535.60204064 -535.60204064 -535.60204064
C          0.93567       -0.09510        0.03500
O          0.39617       -0.82241        1.14334
C          2.47486       -0.06226        0.07110
O          2.97705       -1.40226        0.04301
C          3.04404        0.77103       -1.09770
O          2.55764        2.11644       -1.04280
C          4.57351        0.75720       -1.18181
C          5.19975        1.33056        0.06446
O          4.64488        2.20689        0.73602
C          6.60038        0.86392        0.47006
O          7.15924        0.06265       -0.34282
O          7.08055        1.30827        1.55886
H          0.51306        0.91309        0.06361
H          0.58289       -0.59848       -0.87108
H          1.00329       -0.68838        1.89291
H          2.77829        0.36550        1.03285
H          2.71371       -1.80795       -0.79978
H          2.67030        0.34626       -2.03771
H          3.07297        2.55679       -0.32736
H          4.90957        1.37679       -2.01948
H          4.92125       -0.26810       -1.34415
21 21 21 21 21 21 21 21 21 21 21 21 21 21 21 21 21 21 21 21 21 21 21 21 21 21 21 21 21 21 21 21 21 21 21 21 21 21 21 21 21 21 21 21 21 21 21 21 21 21 21 21 21 21 21 21 21 21
C(O)C(O)C(O)CC(=O)C(=O)[O-]
InChI=1S/C6H10O6/c7-2-5(10)3(8)1-4(9)6(11)12/h3,5,7-8,10H,1-2H2,(H,11,12)/p-1/t3-,5-/m0/s1
