21
metacyc CPD-622  -885.0862888 -885.0862888 -885.0862888 -885.0862888 -885.0862888 -885.0862888 -885.0862888 -885.0862888 -885.0862888 -885.0862888 -885.0862888 -885.0862888 -885.0862888 -885.0862888 -885.0862888
C          3.03242       -0.31324       -1.38092
C          2.57286        0.02641        0.04612
C          1.08588        0.45550       -0.06924
O          0.83092        1.36938       -0.92222
O          0.25126       -0.09220        0.70987
C          3.00269       -1.03886        1.12407
O          2.49286       -0.52373        2.38885
C          2.42619       -2.45254        0.87734
C          2.68561       -3.64914        1.81549
O          2.77131       -3.44317        3.06065
O          2.62832       -4.79375        1.24432
C          4.60362       -1.05408        1.12778
O          5.19793       -0.11918        1.76035
O          5.16893       -1.92334        0.38477
H          2.73487        0.45153       -2.10731
H          2.60861       -1.26015       -1.72778
H          4.12237       -0.37604       -1.44465
H          3.07286        0.96713        0.32551
H          1.52457       -0.63073        2.29738
H          2.73661       -2.78889       -0.12046
H          1.33126       -2.38731        0.84348
21 21 21 21 21 21 21 21 21 21 21 21 21 21 21 21 21 21 21 21 21 21 21 21 21 21 21 21 21 21 21 21 21 21 21 21 21 21 21 21 21 21 21 21 21 21 21 21 21 21 21 21 21 21 21 21 21 21
CC(C(=O)[O-])C(O)(CC(=O)[O-])C(=O)[O-]
InChI=1S/C7H10O7/c1-3(5(10)11)7(14,6(12)13)2-4(8)9/h3,14H,2H2,1H3,(H,8,9)(H,10,11)(H,12,13)/p-3/t3-,7+/m1/s1
