21
metacyc CPD-10229  -277.22217496 -277.22217496 -277.22217496 -277.22217496 -277.22217496 -277.22217496 -277.22217496 -277.22217496 -277.22217496 -277.22217496 -277.22217496 -277.22217496 -277.22217496 -277.22217496 -277.22217496
C          0.87768       -0.10976        0.19607
O          0.51328        0.13474        1.38517
O          0.20638       -0.32933       -0.84495
C          2.43305       -0.13553        0.02599
O          3.04478        0.17133        1.30923
C          2.83477       -1.55308       -0.35285
C          2.60924       -1.85599       -1.81734
O          2.26496       -2.98281       -2.18778
C          3.08299       -0.80205       -2.81586
O          4.51586       -0.86669       -2.89840
C          2.57339        0.59014       -2.42014
N          3.17168        1.61592       -3.28472
C          2.89979        0.93283       -0.96353
H          2.25110        0.27066        1.89736
H          2.28395       -2.28626        0.24928
H          3.89940       -1.71564       -0.14335
H          2.69011       -1.06900       -3.80385
H          4.88365       -0.47664       -2.08769
H          1.49371        0.63766       -2.58321
H          2.44436        1.89802       -0.70048
H          3.98093        1.08689       -0.83840
21 21 21 21 21 21 21 21 21 21 21 21 21 21 21 21 21 21 21 21 21 21 21 21 21 21 21 21 21 21 21 21 21 21 21 21 21 21 21 21 21 21 21 21 21 21 21 21 21 21 21 21 21 21 21 21 21 21
C(=O)([O-])C1(O)(CC(=O)C(O)C([N+])C1)
InChI=1S/C7H11NO5/c8-3-1-7(13,6(11)12)2-4(9)5(3)10/h3,5,10,13H,1-2,8H2,(H,11,12)/t3-,5+,7-/m1/s1
