19
metacyc CPD-9028  -33.606561624 -33.606561624 -33.606561624 -33.606561624 -33.606561624 -33.606561624 -33.606561624 -33.606561624 -33.606561624 -33.606561624 -33.606561624 -33.606561624 -33.606561624 -33.606561624 -33.606561624
C          1.06501       -0.13445       -0.02727
C          2.56488       -0.06557       -0.01822
N          3.23075       -1.26062       -0.05662
C          4.58339       -1.23033       -0.05714
C          5.26403       -0.04127       -0.01916
C          4.59932        1.16338        0.02390
C          3.22089        1.17235        0.02267
O          2.49497        2.32283        0.05752
C          5.59849        2.24509        0.06898
O          6.86070        1.54524        0.02345
C          6.69293        0.18930       -0.02047
O          7.56478       -0.65360       -0.05715
H          0.72411       -1.17460       -0.05107
H          0.66780        0.37211       -0.91238
H          0.65693        0.33469        0.87333
H          5.08991       -2.18902       -0.08957
H          3.07886        3.09773        0.05197
H          5.54938        2.81579        1.00049
H          5.53292        2.90901       -0.79743
19 19 19 19 19 19 19 19 19 19 19 19 19 19 19 19 19 19 19 19 19 19 19 19 19 19 19 19 19 19 19 19 19 19 19 19 19 19 19 19 19 19 19 19 19 19 19 19 19 19 19 19
CC1(=NC=C2(C(=C(O)1)COC(=O)2))
InChI=1S/C8H7NO3/c1-4-7(10)6-3-12-8(11)5(6)2-9-4/h2,10H,3H2,1H3
