8
metacyc CPD-16021  -175.09964688 -175.09964688 -175.09964688 -175.09964688 -175.09964688 -175.09964688 -175.09964688 -175.09964688 -175.09964688 -175.09964688 -175.09964688 -175.09964688 -175.09964688 -175.09964688 -175.09964688
C          1.00917        0.05727       -0.08298
C          2.34793        0.08458       -0.10214
F          3.00117       -0.88512        0.58539
C          3.15764        1.17297       -0.87354
O          2.46843        2.04014       -1.48957
O          4.41562        1.06250       -0.79381
H          0.48415       -0.71360        0.46341
H          0.43796        0.80987       -0.61657
8 8 8 8 8 8 8 8 8 8 8 8 8 8 8 8 8 8 8
C=C(F)C(=O)[O-]
InChI=1S/C3H3FO2/c1-2(4)3(5)6/h1H2,(H,5,6)/p-1
