22
metacyc CPD-20754  -113.581152648 -113.581152648 -113.581152648 -113.581152648 -113.581152648 -113.581152648 -113.581152648 -113.581152648 -113.581152648 -113.581152648 -113.581152648 -113.581152648 -113.581152648 -113.581152648 -113.581152648
C          0.31446        0.89424       -0.09062
N          0.87350       -0.45253        0.12752
C         -0.33705       -1.06904       -0.03777
O         -0.56801       -2.22087       -0.30240
C         -1.08378        0.28833        0.26937
O         -1.50065        0.41041        1.65778
C         -2.22745        0.64990       -0.68094
C         -2.79054        2.03676       -0.34345
C         -3.92040        2.50067       -1.26856
N         -5.05388        1.56984       -1.19448
C         -4.46007        3.91795       -0.92232
O         -3.95270        4.48020        0.09290
O         -5.30252        4.39521       -1.74069
H          0.45470        1.23206       -1.12235
H          0.70715        1.63466        0.60920
H          1.66971       -0.88387       -0.32092
H         -0.70710        0.18823        2.17355
H         -3.01283       -0.10997       -0.59803
H         -1.87806        0.63475       -1.72116
H         -1.97395        2.76970       -0.38074
H         -3.14998        2.03896        0.69412
H         -3.55687        2.53218       -2.30243
22 22 22 22 22 22 22 22 22 22 22 22 22 22 22 22 22 22 22 22 22 22 22 22 22 22 22 22 22 22 22 22 22 22 22 22 22 22 22 22 22 22 22 22 22 22 22 22 22 22 22 22 22 22 22 22 22 22 22 22 22
C1(NC(=O)C(O)1CCC([N+])C(=O)[O-])
InChI=1S/C7H12N2O4/c8-4(5(10)11)1-2-7(13)3-9-6(7)12/h4,13H,1-3,8H2,(H,9,12)(H,10,11)/t4-,7-/m0/s1
