22
metacyc CPD-17463  -146.824827584 -146.824827584 -146.824827584 -146.824827584 -146.824827584 -146.824827584 -146.824827584 -146.824827584 -146.824827584 -146.824827584 -146.824827584 -146.824827584 -146.824827584 -146.824827584 -146.824827584
C          1.08405        2.91699        0.51377
O          0.43549        1.92419        0.08262
O          0.65316        4.00705        0.98855
C          2.60850        2.81907        0.45853
C          3.09988        1.49489       -0.10710
C          4.60971        1.42053       -0.17572
C          5.28790        1.86853       -1.31972
C          6.67369        1.76689       -1.37842
O          7.37908        2.17510       -2.47881
C          7.38927        1.23423       -0.30891
O          8.74945        1.12698       -0.38879
C          6.73719        0.80901        0.83813
C          5.34552        0.90567        0.90513
H          2.99721        2.96372        1.47460
H          2.97861        3.65257       -0.15158
H          2.69264        1.33372       -1.11390
H          2.72872        0.65795        0.49913
H          4.71667        2.28237       -2.14509
H          6.73254        2.54340       -3.10711
H          8.95681        1.48038       -1.27657
H          7.30100        0.40360        1.67148
H          4.82660        0.57389        1.80229
22 22 22 22 22 22 22 22 22 22 22 22 22 22 22 22 22 22 22 22 22 22 22 22 22 22 22 22 22 22 22 22 22 22 22 22 22 22 22 22 22 22 22 22 22 22 22 22 22 22 22 22 22 22 22 22 22 22 22 22 22
C([O-])(=O)CCC1(C=C(O)C(O)=CC=1)
InChI=1S/C9H10O4/c10-7-3-1-6(5-8(7)11)2-4-9(12)13/h1,3,5,10-11H,2,4H2,(H,12,13)/p-1
