19
metacyc CPD-9150  -201.1683936 -201.1683936 -201.1683936 -201.1683936 -201.1683936 -201.1683936 -201.1683936 -201.1683936 -201.1683936 -201.1683936 -201.1683936 -201.1683936 -201.1683936 -201.1683936 -201.1683936
C          1.17442       -0.02419        0.00448
C          2.67575        0.09388        0.07308
C          3.18674        1.48326        0.56667
O          4.22037        1.94141        0.00845
O          2.43919        2.04257        1.42654
C          3.40722       -0.98187       -0.28123
C          4.84758       -1.16301       -0.34939
C          5.45641       -2.32935       -0.66482
N          4.77724       -3.53293       -0.98639
C          7.06809       -2.37874       -0.81287
O          7.74422       -1.41750       -0.37041
O          7.44909       -3.45040       -1.40253
H          0.65631        0.90596        0.24726
H          0.81814       -0.79444        0.69559
H          0.86461       -0.29620       -1.01186
H          2.84453       -1.86822       -0.56379
H          5.46139       -0.28585       -0.14679
H          4.01633       -3.32486       -1.61921
H          5.50189       -4.10398       -1.45101
19 19 19 19 19 19 19 19 19 19 19 19 19 19 19 19 19 19 19 19 19 19 19 19 19 19 19 19 19 19 19 19 19 19 19 19 19 19 19 19 19 19 19 19 19 19 19 19 19 19 19 19
CC(C(=O)[O-])=CC=C(N)C([O-])=O
InChI=1S/C7H9NO4/c1-4(6(9)10)2-3-5(8)7(11)12/h2-3H,8H2,1H3,(H,9,10)(H,11,12)/p-2/b4-2+,5-3-
