15
metacyc CPD-521  -566.2058668 -566.2058668 -566.2058668 -566.2058668 -566.2058668 -566.2058668 -566.2058668 -566.2058668 -566.2058668 -566.2058668 -566.2058668 -566.2058668 -566.2058668 -566.2058668 -566.2058668
C          1.00421        2.24974       -0.48045
O          2.42919        2.19406       -0.47480
C          2.93839        1.02397       -0.95560
O          2.25977        0.04874       -1.26604
C          4.43163        1.04237       -0.96548
C          5.02932        2.03841       -1.91314
O          4.38338        2.75626       -2.67520
C          6.55370        2.13342       -1.93599
O          7.15101        1.32551       -1.15290
O          7.09474        2.98445       -2.70805
H          0.70189        3.25314       -0.16656
H          0.59351        1.52637        0.23121
H          0.61024        2.07080       -1.48528
H          4.77645        0.04384       -1.25502
H          4.77581        1.24146        0.05493
15 15 15 15 15 15 15 15 15 15 15 15 15 15 15 15 15 15 15 15 15 15 15 15 15 15 15 15 15 15 15 15 15 15 15 15 15 15 15 15
COC(=O)CC(=O)C(=O)[O-]
InChI=1S/C5H6O5/c1-10-4(7)2-3(6)5(8)9/h2H2,1H3,(H,8,9)/p-1
