19
metacyc CPD-13043  -192.90526556 -192.90526556 -192.90526556 -192.90526556 -192.90526556 -192.90526556 -192.90526556 -192.90526556 -192.90526556 -192.90526556 -192.90526556 -192.90526556 -192.90526556 -192.90526556 -192.90526556
C         -0.17818        0.57481        0.01836
C         -0.21958       -0.81032        0.00197
C         -1.59572       -1.17653       -0.01880
C         -2.20376       -2.52795       -0.01688
O         -1.43528       -3.53130       -0.00160
O         -3.47719       -2.56712       -0.02872
C         -2.32978        0.00218       -0.02503
N         -1.45652        1.05068       -0.00826
C          1.05519       -1.49561        0.02667
O          1.28692       -2.69960       -0.01044
N          2.12992       -0.61907        0.09177
C          2.03117        0.74988        0.11920
N          3.20348        1.43430        0.18773
N          0.90116        1.39385        0.06991
H         -3.40187        0.15006       -0.03511
H         -1.70074        2.02879        0.00158
H          3.02038       -1.07701        0.15210
H          3.99932        1.00173       -0.25799
H          3.07831        2.40971       -0.05960
19 19 19 19 19 19 19 19 19 19 19 19 19 19 19 19 19 19 19 19 19 19 19 19 19 19 19 19 19 19 19 19 19 19 19 19 19 19 19 19 19 19 19 19 19 19 19 19 19 19 19 19
C12(=C(C(C([O-])=O)=CN1)C(=O)NC(N)=N2)
InChI=1S/C7H6N4O3/c8-7-10-4-3(5(12)11-7)2(1-9-4)6(13)14/h1H,(H,13,14)(H4,8,9,10,11,12)/p-1
