18
metacyc CPD-8781  -158.925984848 -158.925984848 -158.925984848 -158.925984848 -158.925984848 -158.925984848 -158.925984848 -158.925984848 -158.925984848 -158.925984848 -158.925984848 -158.925984848 -158.925984848 -158.925984848 -158.925984848
C          0.90868        0.24237        0.06449
C          2.39293        0.06730        0.05439
C          3.09442       -1.04973        0.31354
C          2.56851       -2.34496        0.68222
C          1.78783       -3.16194       -0.04661
C          1.25768       -2.85170       -1.51548
O          0.13607       -3.36785       -1.79689
O          2.01173       -2.12968       -2.23179
O          1.41048       -4.40245        0.48683
C          3.19093        1.27214       -0.29746
O          2.73271        2.41060       -0.28982
H          0.37285       -0.66786        0.34430
H          0.55901        0.54102       -0.92984
H          0.61859        1.01989        0.77875
H          4.18219       -1.03049        0.28728
H          2.92140       -2.68713        1.65192
H          1.70468       -4.44342        1.40645
H          4.25464        1.09292       -0.52784
18 18 18 18 18 18 18 18 18 18 18 18 18 18 18 18 18 18 18 18 18 18 18 18 18 18 18 18 18 18 18 18 18 18 18 18 18 18 18 18 18 18 18 18 18 18 18 18 18
CC(=CC=C(C([O-])=O)O)C=O
InChI=1S/C7H8O4/c1-5(4-8)2-3-6(9)7(10)11/h2-4,9H,1H3,(H,10,11)/p-1/b5-2+,6-3-
