15
metacyc CPD-14343  -565.67144448 -565.67144448 -565.67144448 -565.67144448 -565.67144448 -565.67144448 -565.67144448 -565.67144448 -565.67144448 -565.67144448 -565.67144448 -565.67144448 -565.67144448 -565.67144448 -565.67144448
C          1.02193       -0.12028       -0.05949
O          0.31198        0.47142        0.81220
O          0.59857       -0.82231       -1.03514
C          2.55632        0.01802        0.03865
O          3.02199        0.63026        0.99905
C          3.40076       -0.58143       -1.03571
C          4.73282       -0.50245       -1.10177
C          5.65002        0.11382       -0.20594
C          6.87839        0.00892       -0.69161
C          6.74143       -0.71483       -1.95252
O          7.67978       -0.97893       -2.68783
O          5.43336       -1.04865       -2.17808
H          2.84797       -1.09232       -1.81879
H          5.38408        0.59700        0.72259
H          7.80612        0.36636       -0.28735
15 15 15 15 15 15 15 15 15 15 15 15 15 15 15 15 15 15 15 15 15 15 15 15 15 15 15 15 15 15 15 15 15 15 15 15 15 15 15 15
C(=O)([O-])C(=O)C=C1(C=CC(=O)O1)
InChI=1S/C7H4O5/c8-5(7(10)11)3-4-1-2-6(9)12-4/h1-3H,(H,10,11)/p-1/b4-3-
