21
metacyc CPD-9736  -322.37414568 -322.37414568 -322.37414568 -322.37414568 -322.37414568 -322.37414568 -322.37414568 -322.37414568 -322.37414568 -322.37414568 -322.37414568 -322.37414568 -322.37414568 -322.37414568 -322.37414568
C          1.44981       -1.71097        1.02987
C          2.29030       -0.91021        0.41293
C          3.59440       -0.78005       -0.12128
C          4.06249       -1.44412       -1.42395
O          3.20915       -0.96491       -2.50141
C          5.56387       -0.95231       -1.70558
O          6.45125       -1.32225       -0.87599
O          5.65226       -0.08132       -2.63559
C          3.94461       -2.96452       -1.30592
C          4.35951       -3.89726       -2.44049
O          4.78878       -3.39433       -3.51176
O          4.16896       -5.13167       -2.18243
C          2.50228        0.37127       -0.12490
H          1.74870       -2.72493        1.26975
H          0.44872       -1.38493        1.27668
H          4.39032       -0.72409        0.61067
H          3.89008       -0.63315       -3.13523
H          2.89185       -3.21851       -1.11955
H          4.50566       -3.29588       -0.42071
H          2.00479        0.59910       -1.05670
H          2.65307        1.19238        0.55694
21 21 21 21 21 21 21 21 21 21 21 21 21 21 21 21 21 21 21 21 21 21 21 21 21 21 21 21 21 21 21 21 21 21 21 21 21 21 21 21 21 21 21 21 21 21 21 21 21 21 21 21 21 21 21 21 21 21
C=C1(C(C(O)(C(=O)[O-])CC([O-])=O)C1)
InChI=1S/C8H10O5/c1-4-2-5(4)8(13,7(11)12)3-6(9)10/h5,13H,1-3H2,(H,9,10)(H,11,12)/p-2
