13
metacyc CPD-603  -57.808064456 -57.808064456 -57.808064456 -57.808064456 -57.808064456 -57.808064456 -57.808064456 -57.808064456 -57.808064456 -57.808064456 -57.808064456 -57.808064456 -57.808064456 -57.808064456 -57.808064456
C          0.99970       -0.10244       -0.04794
C         -0.52022       -0.08729       -0.04878
C         -1.01842       -0.00636        1.40146
N         -0.63953        1.25304        2.11639
C         -2.56740       -0.06160        1.22131
O         -3.07227        0.97712        0.69818
O         -3.11452       -1.14328        1.57526
N          2.26060       -0.11500       -0.04725
H         -0.88247       -0.99887       -0.53906
H         -0.85484        0.76833       -0.64790
H         -0.66178       -0.86000        1.98860
H         -1.26040        1.97633        1.73109
H          0.31506        1.51695        1.89134
13 13 13 13 13 13 13 13 13 13 13 13 13 13 13 13 13 13 13 13 13 13 13 13 13 13 13 13 13 13 13 13 13 13
C(CC(N)C(=O)[O-])#N
InChI=1S/C4H6N2O2/c5-2-1-3(6)4(7)8/h3H,1,6H2,(H,7,8)/p-1/t3-/m0/s1
