17
metacyc CPD-12987  -20.5011995912 -20.5011995912 -20.5011995912 -20.5011995912 -20.5011995912 -20.5011995912 -20.5011995912 -20.5011995912 -20.5011995912 -20.5011995912 -20.5011995912 -20.5011995912 -20.5011995912 -20.5011995912 -20.5011995912
C          0.91678       -0.04503        0.15135
O          0.38109       -1.14594       -0.16730
O          0.37828        0.99670        0.61879
C          2.44393        0.02407        0.00705
C          3.07000        1.38975       -0.10130
N          2.74820        2.00832       -1.39608
C          4.63231        1.38078        0.05225
O          5.03705        1.96666        1.30142
C          5.29356        0.03162        0.00613
C          4.59755       -1.11270       -0.01147
C          3.15960       -1.11331        0.04712
H          2.66460        2.03688        0.68637
H          5.09101        2.00380       -0.72591
H          4.51761        1.50122        1.98230
H          6.37813        0.00835       -0.00681
H          5.09794       -2.07523       -0.03805
H          2.65713       -2.07601        0.13258
17 17 17 17 17 17 17 17 17 17 17 17 17 17 17 17 17 17 17 17 17 17 17 17 17 17 17 17 17 17 17 17 17 17 17 17 17 17 17 17 17 17 17 17 17 17
C([O-])(=O)C1(C([N+])C(O)C=CC=1)
InChI=1S/C7H9NO3/c8-6-4(7(10)11)2-1-3-5(6)9/h1-3,5-6,9H,8H2,(H,10,11)/t5-,6-/m1/s1
