23
metacyc CPD-8486  -209.459299216 -209.459299216 -209.459299216 -209.459299216 -209.459299216 -209.459299216 -209.459299216 -209.459299216 -209.459299216 -209.459299216 -209.459299216 -209.459299216 -209.459299216 -209.459299216 -209.459299216
C          3.31916       -1.03652       -0.35583
O          2.66224        0.21374       -0.16277
C          3.21781        1.00861        0.81383
C          2.91596        2.37597        0.72983
O          2.11692        2.80879       -0.30486
C          3.42882        3.29526        1.65175
O          3.07586        4.60940        1.47476
C          3.62001        5.54072        2.40068
C          4.26170        2.81937        2.66920
C          4.57603        1.45161        2.78172
C          5.49817        0.95342        3.87686
O          5.97149        1.82130        4.67368
O          5.73507       -0.29635        3.90582
C          4.02907        0.55322        1.85061
H          2.86924       -1.51799       -1.22936
H          3.16999       -1.70422        0.49901
H          4.38461       -0.89170       -0.56681
H          1.92773        1.99866       -0.81317
H          3.24776        6.53204        2.12900
H          4.71250        5.56826        2.33632
H          3.28391        5.33004        3.42052
H          4.69853        3.48654        3.40902
H          4.26577       -0.49944        1.97630
23 23 23 23 23 23 23 23 23 23 23 23 23 23 23 23 23 23 23 23 23 23 23 23 23 23 23 23 23 23 23 23 23 23 23 23 23 23 23 23 23 23 23 23 23 23 23 23 23 23 23 23 23 23 23 23 23 23 23 23 23 23 23 23
COC1(=C(O)C(OC)=CC(C([O-])=O)=C1)
InChI=1S/C9H10O5/c1-13-6-3-5(9(11)12)4-7(14-2)8(6)10/h3-4,10H,1-2H3,(H,11,12)/p-1
