24
metacyc CPD-15616  -393.99290796 -393.99290796 -393.99290796 -393.99290796 -393.99290796 -393.99290796 -393.99290796 -393.99290796 -393.99290796 -393.99290796 -393.99290796 -393.99290796 -393.99290796 -393.99290796 -393.99290796
C          1.93458        1.25779       -3.32174
O          1.54673        2.49825       -3.88281
C          2.79023        1.37250       -2.06147
O          3.10909        2.46829       -1.58543
C          3.25386        0.05184       -1.42601
O          2.86937       -1.14268       -2.10952
C          4.77918        0.02812       -1.17749
O          5.11033       -1.18528       -0.48217
C          5.61846        0.09371       -2.46932
O          5.31318        1.27168       -3.21719
C          7.12641        0.01144       -2.18018
O          7.87769        0.17894       -3.38225
H          2.50460        0.71315       -4.08243
H          1.02979        0.69884       -3.07886
H          2.34841        3.05348       -3.91236
H          2.74519       -0.00611       -0.45530
H          3.25151       -1.13363       -3.00555
H          5.05044        0.86990       -0.52880
H          4.52653       -1.88557       -0.83716
H          5.36657       -0.74944       -3.12212
H          5.89263        1.98782       -2.88756
H          7.39604       -0.95306       -1.73849
H          7.43810        0.80839       -1.49719
H          7.48584       -0.39252       -4.06460
24 24 24 24 24 24 24 24 24 24 24 24 24 24 24 24 24 24 24 24 24 24 24 24 24 24 24 24 24 24 24 24 24 24 24 24 24 24 24 24 24 24 24 24 24 24 24 24 24 24 24 24 24 24 24 24 24 24 24 24 24 24 24 24 24 24 24
C(O)C(=O)C(O)C(O)C(O)CO
InChI=1S/C6H12O6/c7-1-3(9)5(11)6(12)4(10)2-8/h3,5-9,11-12H,1-2H2/t3-,5+,6+/m0/s1
