17
metacyc CPD-14129  -113.617934192 -113.617934192 -113.617934192 -113.617934192 -113.617934192 -113.617934192 -113.617934192 -113.617934192 -113.617934192 -113.617934192 -113.617934192 -113.617934192 -113.617934192 -113.617934192 -113.617934192
C          1.06099       -0.08244        0.03148
O          0.51954        1.06547        0.12409
O          0.44910       -1.19593        0.04252
C          2.57073       -0.12009       -0.10473
C          3.32333        1.06919       -0.08231
C          4.71730        1.05146       -0.20761
C          5.38388       -0.15516       -0.40608
N          6.79604       -0.20276       -0.49240
C          4.64198       -1.34388       -0.35364
O          5.30306       -2.54445       -0.38029
C          3.25695       -1.33870       -0.23248
H          2.80217        2.01803        0.04040
H          5.25709        1.99139       -0.17078
H          7.17455        0.71358       -0.71732
H          7.07162       -0.87934       -1.20219
H          6.18368       -2.32308       -0.02740
H          2.70214       -2.27348       -0.20908
17 17 17 17 17 17 17 17 17 17 17 17 17 17 17 17 17 17 17 17 17 17 17 17 17 17 17 17 17 17 17 17 17 17 17 17 17 17 17 17 17 17 17 17 17 17
C([O-])(=O)C1(C=CC(N)=C(O)C=1)
InChI=1S/C7H7NO3/c8-5-2-1-4(7(10)11)3-6(5)9/h1-3,9H,8H2,(H,10,11)/p-1
