12
metacyc CPD-385  -10.4412540064 -10.4412540064 -10.4412540064 -10.4412540064 -10.4412540064 -10.4412540064 -10.4412540064 -10.4412540064 -10.4412540064 -10.4412540064 -10.4412540064 -10.4412540064 -10.4412540064 -10.4412540064 -10.4412540064
C          1.06421        0.89788       -0.00015
C          1.39348       -0.39867       -0.00084
C          0.33291       -1.43186       -0.00183
C         -1.11936       -0.94674       -0.00171
C         -1.34594        0.51642       -0.00109
C         -0.30303        1.35439       -0.00037
O         -2.06063       -1.72608       -0.00211
O          0.61677       -2.62048       -0.00271
H          1.84403        1.65620        0.00058
H          2.41806       -0.74839       -0.00072
H         -2.37490        0.85300       -0.00122
H         -0.47043        2.42919        0.00009
12 12 12 12 12 12 12 12 12 12 12 12 12 12 12 12 12 12 12 12 12 12 12 12 12 12 12 12 12 12 12
C1(=CC(C(C=C1)=O)=O)
InChI=1S/C6H4O2/c7-5-3-1-2-4-6(5)8/h1-4H
