20
metacyc CPD-9403  -193.0533164 -193.0533164 -193.0533164 -193.0533164 -193.0533164 -193.0533164 -193.0533164 -193.0533164 -193.0533164 -193.0533164 -193.0533164 -193.0533164 -193.0533164 -193.0533164 -193.0533164
C          0.91520       -0.10518       -0.13056
O          0.04545        0.20924        0.73651
O          0.70055       -0.70222       -1.23754
C          2.40669        0.19160        0.16976
C          2.80134        1.34343        1.11069
N          4.26539        1.41019        1.38752
C          4.64904        2.86712        1.49180
C          5.43419        3.39754        2.75260
O          6.29690        2.63931        3.29752
O          5.22540        4.62240        3.06107
C          3.33266        3.64527        1.32368
C          2.44304        2.70902        0.53272
H          2.91173        0.33000       -0.79684
H          2.80875       -0.74539        0.57996
H          2.26693        1.21139        2.06075
H          5.30009        3.11243        0.63932
H          3.48188        4.59625        0.80033
H          2.86828        3.86542        2.29268
H          2.68619        2.76943       -0.53565
H          1.38135        2.94576        0.65262
20 20 20 20 20 20 20 20 20 20 20 20 20 20 20 20 20 20 20 20 20 20 20 20 20 20 20 20 20 20 20 20 20 20 20 20 20 20 20 20 20 20 20 20 20 20 20 20 20 20 20 20 20 20 20
C([O-])(=O)CC1([N+]C(C(=O)[O-])CC1)
InChI=1S/C7H11NO4/c9-6(10)3-4-1-2-5(8-4)7(11)12/h4-5,8H,1-3H2,(H,9,10)(H,11,12)/p-1/t4-,5-/m1/s1
