16
metacyc CPD-48  -503.38996856 -503.38996856 -503.38996856 -503.38996856 -503.38996856 -503.38996856 -503.38996856 -503.38996856 -503.38996856 -503.38996856 -503.38996856 -503.38996856 -503.38996856 -503.38996856 -503.38996856
C          0.99376        0.12514       -0.00440
C          0.12375       -0.52160       -1.08452
O          0.69482       -1.37187       -1.82928
O         -1.09524       -0.17744       -1.06479
C          2.51558       -0.05036       -0.13575
O          2.76972       -1.46905       -0.15885
C          3.15083        0.64635       -1.35124
N          2.76905        2.07036       -1.40834
C          4.70607        0.65015       -1.33001
O          5.27952        0.82694       -0.21115
O          5.26541        0.53031       -2.46777
H          0.67389       -0.34348        0.93655
H          0.73639        1.18818        0.07031
H          2.96911        0.32828        0.78851
H          2.22993       -1.78289       -0.93018
H          2.82685        0.15864       -2.27685
16 16 16 16 16 16 16 16 16 16 16 16 16 16 16 16 16 16 16 16 16 16 16 16 16 16 16 16 16 16 16 16 16 16 16 16 16 16 16 16 16 16 16
C(C(=O)[O-])C(O)C([N+])C(=O)[O-]
InChI=1S/C5H9NO5/c6-4(5(10)11)2(7)1-3(8)9/h2,4,7H,1,6H2,(H,8,9)(H,10,11)/p-1/t2?,4-/m0/s1
