20
metacyc CPD-21004  -162.18949648 -162.18949648 -162.18949648 -162.18949648 -162.18949648 -162.18949648 -162.18949648 -162.18949648 -162.18949648 -162.18949648 -162.18949648 -162.18949648 -162.18949648 -162.18949648 -162.18949648
C          0.89978       -0.03285       -0.11591
O          0.34427        0.99533       -0.62438
O          0.41341       -1.05873        0.42492
C          2.46471        0.06637       -0.22936
O          2.90180        1.22114       -0.87622
C          3.28705       -0.89073        0.22950
C          4.75589       -0.92337        0.14047
C          5.54156        0.23619        0.16043
C          6.93227        0.16609        0.04109
C          7.54604       -1.07552       -0.07576
O          8.89706       -1.18197       -0.23378
C          6.79515       -2.24292       -0.04424
C          5.40336       -2.16595        0.06739
H          2.03361        1.65862       -1.07598
H          2.82761       -1.76387        0.69203
H          5.06647        1.20983        0.25592
H          7.50321        1.08779        0.03751
H          9.24199       -0.28798       -0.39159
H          7.28303       -3.20875       -0.12316
H          4.82065       -3.08421        0.07345
20 20 20 20 20 20 20 20 20 20 20 20 20 20 20 20 20 20 20 20 20 20 20 20 20 20 20 20 20 20 20 20 20 20 20 20 20 20 20 20 20 20 20 20 20 20 20 20 20 20 20 20 20 20 20
C([O-])(=O)C(O)=CC1(C=CC(O)=CC=1)
InChI=1S/C9H8O4/c10-7-3-1-6(2-4-7)5-8(11)9(12)13/h1-5,10-11H,(H,12,13)/p-1/b8-5-
