24
metacyc CPD-15383  -387.884272144 -387.884272144 -387.884272144 -387.884272144 -387.884272144 -387.884272144 -387.884272144 -387.884272144 -387.884272144 -387.884272144 -387.884272144 -387.884272144 -387.884272144 -387.884272144 -387.884272144
C          0.98871        0.10304       -0.03271
O          0.45491       -0.58801       -1.15931
C          2.52014       -0.04590        0.00850
O          3.11572        0.49922       -1.17290
C          3.13081        0.62454        1.25013
O          2.64015        0.04726        2.46874
C          4.67935        0.64762        1.30115
O          5.05506        1.35882        2.50014
C          5.35481       -0.73300        1.34020
O          5.00236       -1.55005        0.23448
C          6.86230       -0.53487        1.38025
H          7.26016       -0.07758        2.30116
O          7.60445       -0.85494        0.45671
H          0.52081       -0.30066        0.86970
H          0.70332        1.15524       -0.13416
H          0.85246       -1.47628       -1.18939
H          2.72355       -1.12004        0.01169
H          2.52273        1.18939       -1.52319
H          2.80461        1.67320        1.27038
H          2.73239       -0.92460        2.40362
H          5.06263        1.22316        0.44910
H          4.34213        1.19237        3.15214
H          5.08334       -1.27320        2.25362
H          5.53239       -1.23631       -0.52863
24 24 24 24 24 24 24 24 24 24 24 24 24 24 24 24 24 24 24 24 24 24 24 24 24 24 24 24 24 24 24 24 24 24 24 24 24 24 24 24 24 24 24 24 24 24 24 24 24 24 24 24 24 24 24 24 24 24 24 24 24 24 24 24 24 24 24
C(O)C(O)C(O)C(O)C(O)[CH]=O
InChI=1S/C6H12O6/c7-1-3(9)5(11)6(12)4(10)2-8/h1,3-6,8-12H,2H2/t3-,4-,5-,6-/m0/s1
