29
metacyc CPD-522  -468.33323672 -468.33323672 -468.33323672 -468.33323672 -468.33323672 -468.33323672 -468.33323672 -468.33323672 -468.33323672 -468.33323672 -468.33323672 -468.33323672 -468.33323672 -468.33323672 -468.33323672
C          2.88929        2.04004        1.56844
C          2.67829        0.64686        1.05891
O          2.60062       -0.24037        2.08752
C          2.41792       -1.62170        1.72651
C          3.57114       -2.47210        2.27739
O          3.42602       -3.86326        1.95754
C          3.64178       -4.19505        0.58337
C          5.02261       -3.73528        0.06528
C          5.23009       -2.24919        0.38753
C          4.97790       -1.99030        1.87942
O          5.97037       -2.74809        2.61772
O          6.56267       -1.84686        0.05374
O          6.04548       -4.55194        0.68216
O          3.54328       -5.60631        0.45946
O          2.63635        0.35267       -0.12691
H          2.63482        2.10929        2.62924
H          2.24282        2.72829        1.02027
H          3.93944        2.31601        1.43267
H          2.28272       -1.76210        0.65200
H          1.47833       -1.95573        2.18614
H          3.51122       -2.41464        3.37165
H          2.83904       -3.76144       -0.01998
H          5.11142       -3.92181       -1.00974
H          4.55045       -1.64476       -0.22131
H          5.14401       -0.93667        2.12854
H          5.60332       -2.94192        3.50140
H          7.15141       -2.36612        0.63602
H          6.16047       -4.21028        1.59403
H          4.45029       -5.93405        0.61822
29 29 29 29 29 29 29 29 29 29 29 29 29 29 29 29 29 29 29 29 29 29 29 29 29 29 29 29 29 29 29 29 29 29 29 29 29 29 29 29 29 29 29 29 29 29 29 29 29 29 29 29 29 29 29 29 29 29 29 29 29 29 29 29 29 29 29 29 29 29 29 29 29 29 29 29 29 29 29 29 29 29
CC(OCC1(OC(C(C(C1O)O)O)O))=O
InChI=1S/C8H14O7/c1-3(9)14-2-4-5(10)6(11)7(12)8(13)15-4/h4-8,10-13H,2H2,1H3/t4-,5-,6+,7-,8?/m1/s1
