27
metacyc CPD-19916  -376.96869312 -376.96869312 -376.96869312 -376.96869312 -376.96869312 -376.96869312 -376.96869312 -376.96869312 -376.96869312 -376.96869312 -376.96869312 -376.96869312 -376.96869312 -376.96869312 -376.96869312
C         -0.20583       -1.19220       -0.31274
C         -1.15128       -0.07665       -0.20871
N         -0.43429        1.01502        0.12048
C          0.88674        0.74408        0.08423
C          1.02590       -0.70560       -0.12647
C          2.35116       -1.37410       -0.14000
C          3.32296       -0.98959        0.98799
C          4.29493       -2.15813        0.92786
C          3.33259       -3.33745        0.70297
C          3.91880       -4.51887       -0.06349
O          4.26326       -4.10797       -1.38980
O          2.18880       -2.81426       -0.03049
O          5.21925       -1.93266       -0.13803
O          2.69217       -0.94517        2.27403
O          1.80161        1.54077        0.14766
O         -2.34684       -0.15307       -0.41685
H         -0.50515       -2.20104       -0.54204
H         -0.81587        1.94226        0.19765
H          2.82353       -1.19546       -1.11428
H          3.80768       -0.02682        0.80185
H          4.86560       -2.29044        1.85180
H          2.94759       -3.68835        1.66839
H          3.19261       -5.33348       -0.14810
H          4.81974       -4.89961        0.42715
H          3.41282       -3.97307       -1.85259
H          5.05320       -2.58279       -0.85375
H          2.01941       -1.64532        2.31653
27 27 27 27 27 27 27 27 27 27 27 27 27 27 27 27 27 27 27 27 27 27 27 27 27 27 27 27 27 27 27 27 27 27 27 27 27 27 27 27 27 27 27 27 27 27 27 27 27 27 27 27 27 27 27 27 27 27 27 27 27 27 27 27 27 27 27 27 27 27 27 27 27 27 27 27
C1(C(NC(C=1C2(C(C(C(CO)O2)O)O))=O)=O)
InChI=1S/C9H11NO6/c11-2-4-6(13)7(14)8(16-4)3-1-5(12)10-9(3)15/h1,4,6-8,11,13-14H,2H2,(H,10,12,15)/t4-,6-,7-,8+/m1/s1
