11
metacyc CPD-562  -667.03842584 -667.03842584 -667.03842584 -667.03842584 -667.03842584 -667.03842584 -667.03842584 -667.03842584 -667.03842584 -667.03842584 -667.03842584 -667.03842584 -667.03842584 -667.03842584 -667.03842584
C          0.93378       -0.04855        0.03860
O          0.25567       -1.01146        0.53353
O          0.42118        1.08629       -0.25096
C          2.39975       -0.19752        0.03328
C          3.18631       -0.90603       -1.05047
C          2.58050       -1.55826       -2.22669
O          2.37388       -0.88917       -3.29418
O          2.46713       -2.83155       -2.17105
O          3.12050        0.53424       -0.98400
H          2.85508       -0.21773        1.01526
H          4.11870       -1.34849       -0.72269
11 11 11 11 11 11 11 11 11 11 11 11 11 11 11 11 11 11 11 11 11 11 11 11 11 11 11 11
C([O-])(=O)C1(C(C([O-])=O)O1)
InChI=1S/C4H4O5/c5-3(6)1-2(9-1)4(7)8/h1-2H,(H,5,6)(H,7,8)/p-2/t1-,2-/m1/s1
