21
metacyc CPD-9737  -316.43286568 -316.43286568 -316.43286568 -316.43286568 -316.43286568 -316.43286568 -316.43286568 -316.43286568 -316.43286568 -316.43286568 -316.43286568 -316.43286568 -316.43286568 -316.43286568 -316.43286568
C          1.55186       -1.50335        1.24289
C          2.38649       -0.83484        0.47946
C          3.68308       -0.81357       -0.07919
C          4.13651       -1.58852       -1.30864
C          5.60298       -1.16984       -1.63781
O          6.48400       -1.43237       -0.76098
O          5.74735       -0.47775       -2.69597
C          4.06715       -3.12208       -1.15687
C          2.60903       -3.67538       -0.95775
O          1.83700       -3.48976       -1.95602
O          2.39570       -4.37188        0.07945
O          4.52769       -3.73729       -2.40070
C          2.60119        0.32893       -0.27661
H          1.85158       -2.46468        1.65090
H          0.55086       -1.15170        1.43097
H          4.48749       -0.64177        0.62593
H          3.52237       -1.29800       -2.17227
H          4.71515       -3.47801       -0.34940
H          3.70600       -3.73826       -2.93836
H          2.09962        0.39082       -1.23365
H          2.74439        1.25248        0.25982
21 21 21 21 21 21 21 21 21 21 21 21 21 21 21 21 21 21 21 21 21 21 21 21 21 21 21 21 21 21 21 21 21 21 21 21 21 21 21 21 21 21 21 21 21 21 21 21 21 21 21 21 21 21 21 21 21 21
C=C1(C(C(C(=O)[O-])C(C([O-])=O)O)C1)
InChI=1S/C8H10O5/c1-3-2-4(3)5(7(10)11)6(9)8(12)13/h4-6,9H,1-2H2,(H,10,11)(H,12,13)/p-2
