20
metacyc CPD-291  -438.22914752 -438.22914752 -438.22914752 -438.22914752 -438.22914752 -438.22914752 -438.22914752 -438.22914752 -438.22914752 -438.22914752 -438.22914752 -438.22914752 -438.22914752 -438.22914752 -438.22914752
C          0.94279        1.86516        1.63236
O          0.33115        0.79267        1.36705
O          0.46343        3.01416        1.86280
C          2.47422        1.79731        1.67671
C          3.09529        0.42997        1.39422
C          4.63043        0.43794        1.39589
C          5.23568        0.81671        2.74960
C          6.75005        0.76347        2.74970
O          7.43529        0.43326        1.77961
C          7.48451        1.14579        4.04894
O          6.73975        1.42452        5.04580
O          8.75764        1.15444        4.04129
H          2.77390        2.14147        2.67309
H          2.85808        2.52441        0.95023
H          2.75567        0.07633        0.41225
H          2.73463       -0.30186        2.12730
H          4.99540        1.12256        0.61998
H          4.98173       -0.56231        1.11073
H          4.87191        0.12813        3.51988
H          4.94712        1.83682        3.01993
20 20 20 20 20 20 20 20 20 20 20 20 20 20 20 20 20 20 20 20 20 20 20 20 20 20 20 20 20 20 20 20 20 20 20 20 20 20 20 20 20 20 20 20 20 20 20 20 20 20 20 20 20 20 20
C(=O)([O-])CCCCC(=O)C([O-])=O
InChI=1S/C7H10O5/c8-5(7(11)12)3-1-2-4-6(9)10/h1-4H2,(H,9,10)(H,11,12)/p-2
