19
metacyc CPD-9142  -178.623989072 -178.623989072 -178.623989072 -178.623989072 -178.623989072 -178.623989072 -178.623989072 -178.623989072 -178.623989072 -178.623989072 -178.623989072 -178.623989072 -178.623989072 -178.623989072 -178.623989072
C          0.97088       -0.00426        0.04106
C          2.47315        0.01603       -0.02353
C          3.21141        1.20406       -0.01267
C          4.60355        1.19236       -0.17890
C          5.31030        0.00814       -0.32467
C          4.61485       -1.19557       -0.29847
C          3.21707       -1.18032       -0.14326
N          2.54957       -2.47455       -0.10453
O          1.87957       -2.73658        0.90366
O          2.71587       -3.22394       -1.07518
O          5.29322        2.37219       -0.19317
O          2.65237        2.44439        0.15414
H          0.52960        0.99214       -0.04664
H          0.62949       -0.43411        0.98710
H          0.56689       -0.58753       -0.79389
H          6.38949        0.02704       -0.45091
H          5.15643       -2.13347       -0.40313
H          4.60562        3.06308       -0.11088
H          1.81197        2.35173        0.63347
19 19 19 19 19 19 19 19 19 19 19 19 19 19 19 19 19 19 19 19 19 19 19 19 19 19 19 19 19 19 19 19 19 19 19 19 19 19 19 19 19 19 19 19 19 19 19 19 19 19 19 19
CC1(C(=C(C=CC=1[N+](=O)[O-])O)O)
InChI=1S/C7H7NO4/c1-4-5(8(11)12)2-3-6(9)7(4)10/h2-3,9-10H,1H3
