18
metacyc CPD-621  -700.407876 -700.407876 -700.407876 -700.407876 -700.407876 -700.407876 -700.407876 -700.407876 -700.407876 -700.407876 -700.407876 -700.407876 -700.407876 -700.407876 -700.407876
C          0.69395        0.03410       -0.13943
O          0.13979       -0.62615       -1.06216
O          0.15041        0.70072        0.79022
C          2.22000       -0.01339       -0.08670
C          2.89063       -0.17275       -1.45004
C          4.41484       -0.23014       -1.35952
C          5.17557       -0.49486       -2.66430
C          5.00695        0.72701       -3.59614
O          5.90712        1.61375       -3.44873
O          4.07994        0.66308       -4.44906
O          6.59424       -0.69387       -2.43196
O          5.00260       -0.15714       -0.27348
H          2.49477       -0.85305        0.56439
H          2.59000        0.89809        0.39919
H          2.60885        0.66606       -2.09348
H          2.55692       -1.10222       -1.92466
H          4.79176       -1.41131       -3.12265
H          6.92458        0.23366       -2.47672
18 18 18 18 18 18 18 18 18 18 18 18 18 18 18 18 18 18 18 18 18 18 18 18 18 18 18 18 18 18 18 18 18 18 18 18 18 18 18 18 18 18 18 18 18 18 18 18 18
C([O-])(=O)CCC(C(C([O-])=O)O)=O
InChI=1S/C6H8O6/c7-3(1-2-4(8)9)5(10)6(11)12/h5,10H,1-2H2,(H,8,9)(H,11,12)/p-2
