20
metacyc CPD-14443  -501.4959136 -501.4959136 -501.4959136 -501.4959136 -501.4959136 -501.4959136 -501.4959136 -501.4959136 -501.4959136 -501.4959136 -501.4959136 -501.4959136 -501.4959136 -501.4959136 -501.4959136
C          0.34534        1.42775        0.13163
C          1.41373        0.36033       -0.01602
O          2.26314        0.43308        1.15406
C          0.96761       -1.07240       -0.20668
C         -0.48435       -1.33326        0.06272
N         -1.40151       -0.42978        0.14301
C         -1.10446        1.00559       -0.04330
C         -1.63393        1.60312       -1.38767
O         -1.06314        1.20925       -2.44772
O         -2.49338        2.53481       -1.25982
C         -0.86855       -2.82399        0.23895
O         -1.90977       -3.10402        0.91659
O         -0.05391       -3.66683       -0.26519
H          0.58982        2.23812       -0.56868
H          0.43876        1.90595        1.11625
H          2.07370        0.62285       -0.85072
H          1.67984        0.19952        1.89943
H          1.54979       -1.73391        0.44548
H          1.16560       -1.39014       -1.23537
H         -1.67153        1.51497        0.74753
20 20 20 20 20 20 20 20 20 20 20 20 20 20 20 20 20 20 20 20 20 20 20 20 20 20 20 20 20 20 20 20 20 20 20 20 20 20 20 20 20 20 20 20 20 20 20 20 20 20 20 20 20 20 20
C1(C(O)CC(=NC1C([O-])=O)C([O-])=O)
InChI=1S/C7H9NO5/c9-3-1-4(6(10)11)8-5(2-3)7(12)13/h3-4,9H,1-2H2,(H,10,11)(H,12,13)/p-2/t3-,4-/m0/s1
