24
metacyc CPD-15590  -387.884272144 -387.884272144 -387.884272144 -387.884272144 -387.884272144 -387.884272144 -387.884272144 -387.884272144 -387.884272144 -387.884272144 -387.884272144 -387.884272144 -387.884272144 -387.884272144 -387.884272144
C          2.91817        0.26286       -1.50220
H          2.84817       -0.52620       -2.27132
O          3.29243        1.39943       -1.79138
C          2.46596       -0.14193       -0.10936
C          2.97235        0.83687        0.97255
C          4.51911        0.86957        1.05278
C          5.09474        1.79339        2.15048
C          6.63108        1.73589        2.17538
O          7.12750        2.61167        3.18803
O          4.73015        3.16817        1.97808
O          5.00021       -0.46907        1.22813
O          2.38710        2.12428        0.73908
O          1.03465       -0.16090       -0.11824
H          2.81614       -1.16056        0.08174
H          2.57430        0.49506        1.93582
H          4.91326        1.23176        0.09788
H          4.72006        1.48801        3.13476
H          7.04738        2.07539        1.22126
H          7.00106        0.72859        2.38491
H          6.55493        3.40438        3.15926
H          4.93276        3.42888        1.06224
H          4.78237       -0.75692        2.13552
H          2.72450        2.44756       -0.12276
H          0.75393        0.77233       -0.01965
24 24 24 24 24 24 24 24 24 24 24 24 24 24 24 24 24 24 24 24 24 24 24 24 24 24 24 24 24 24 24 24 24 24 24 24 24 24 24 24 24 24 24 24 24 24 24 24 24 24 24 24 24 24 24 24 24 24 24 24 24 24 24 24 24 24 24
[CH](=O)C(C(C(C(CO)O)O)O)O
InChI=1S/C6H12O6/c7-1-3(9)5(11)6(12)4(10)2-8/h1,3-6,8-12H,2H2/t3-,4+,5+,6-/m0/s1
