12
metacyc CPD-20867  -0.00905513832 -0.00905513832 -0.00905513832 -0.00905513832 -0.00905513832 -0.00905513832 -0.00905513832 -0.00905513832 -0.00905513832 -0.00905513832 -0.00905513832 -0.00905513832 -0.00905513832 -0.00905513832 -0.00905513832
C          1.00865       -0.10304        0.17727
C          0.23131        0.64134       -0.93707
C         -1.30358        0.60215       -0.89549
C         -1.28184        2.04758       -1.39429
N          0.10728        2.14477       -0.93042
O          0.34794       -0.71996        1.08624
O          2.28657       -0.15095        0.09191
H          0.63415        0.33083       -1.91318
H         -1.74954        0.49306        0.10039
H         -1.77411       -0.11906       -1.57076
H         -1.94301        2.76817       -0.90723
H         -1.35368        2.18099       -2.47888
12 12 12 12 12 12 12 12 12 12 12 12 12 12 12 12 12 12 12 12 12 12 12 12 12 12 12 12 12 12 12
C(C1(CC[N+]1))([O-])=O
InChI=1S/C4H7NO2/c6-4(7)3-1-2-5-3/h3,5H,1-2H2,(H,6,7)/t3-/m0/s1
