17
metacyc CPD-10773  -234.266523912 -234.266523912 -234.266523912 -234.266523912 -234.266523912 -234.266523912 -234.266523912 -234.266523912 -234.266523912 -234.266523912 -234.266523912 -234.266523912 -234.266523912 -234.266523912 -234.266523912
C          1.04562       -0.06944        0.02120
C          2.56053       -0.06567       -0.05476
O          3.02286        0.15032       -1.37379
O          3.10001        0.94677        0.80461
C          4.42853        0.51835        1.14036
C          4.35655       -0.98204        1.39301
O          5.57717       -1.63238        1.11364
C          3.18241       -1.33724        0.51010
O          2.83119       -2.48439        0.24968
H          0.63922        0.88038       -0.34462
H          0.69523       -0.20024        1.05025
H          0.62108       -0.86610       -0.59902
H          2.36709        0.71269       -1.81579
H          4.76538        1.05963        2.02992
H          5.11194        0.77027        0.32070
H          4.06834       -1.18005        2.43043
H          5.63414       -1.75239        0.14698
17 17 17 17 17 17 17 17 17 17 17 17 17 17 17 17 17 17 17 17 17 17 17 17 17 17 17 17 17 17 17 17 17 17 17 17 17 17 17 17 17 17 17 17 17 17
CC1(O)(OCC(O)C(=O)1)
InChI=1S/C5H8O4/c1-5(8)4(7)3(6)2-9-5/h3,6,8H,2H2,1H3/t3-,5+/m0/s1
