17
metacyc CPD-87  -630.67005184 -630.67005184 -630.67005184 -630.67005184 -630.67005184 -630.67005184 -630.67005184 -630.67005184 -630.67005184 -630.67005184 -630.67005184 -630.67005184 -630.67005184 -630.67005184 -630.67005184
C          0.83872       -0.10959        0.12237
C          0.10893       -1.02375        1.03246
O         -1.12319       -1.04178        1.05393
C          2.17005       -0.05401       -0.07323
C          2.80337        0.93260       -0.96227
C          2.36693        1.43712       -2.13708
O          1.17739        1.02987       -2.74038
C          3.24524        2.50202       -2.92117
O          4.05765        3.18289       -2.22652
O          3.03647        2.56155       -4.17176
C          3.17855       -0.94643        0.72964
O          4.27195       -0.41198        1.07265
O          2.76560       -2.11383        0.99869
H          0.17440        0.57077       -0.39879
H          0.69240       -1.67285        1.69559
H          3.77416        1.29051       -0.60488
H          0.98630        0.15207       -2.37950
17 17 17 17 17 17 17 17 17 17 17 17 17 17 17 17 17 17 17 17 17 17 17 17 17 17 17 17 17 17 17 17 17 17 17 17 17 17 17 17 17 17 17 17 17 17
C(C=O)=C(C=C(O)C(=O)[O-])C(=O)[O-]
InChI=1S/C7H6O6/c8-2-1-4(6(10)11)3-5(9)7(12)13/h1-3,9H,(H,10,11)(H,12,13)/p-2/b4-1+,5-3+
