17
metacyc CPD-16725  -234.40142444 -234.40142444 -234.40142444 -234.40142444 -234.40142444 -234.40142444 -234.40142444 -234.40142444 -234.40142444 -234.40142444 -234.40142444 -234.40142444 -234.40142444 -234.40142444 -234.40142444
C          2.02585       -1.01324       -0.20825
O          2.86107       -1.90146        0.50044
O          2.15976        0.27846        0.38561
C          1.27793        1.24752       -0.19625
C         -0.12890        0.78019       -0.07514
C         -1.28491        1.42127        0.03557
C         -2.29889        0.36030        0.09782
O         -3.49692        0.57952        0.17673
O         -1.72243       -0.88748        0.04149
C         -0.37812       -0.61609       -0.05062
C          0.61428       -1.50589       -0.12671
H          2.36731       -0.98453       -1.24951
H          2.57786       -1.82102        1.42433
H          1.55655        1.39847       -1.24534
H          1.42299        2.19213        0.33751
H         -1.50144        2.47267        0.05419
H          0.41900       -2.57132       -0.14651
17 17 17 17 17 17 17 17 17 17 17 17 17 17 17 17 17 17 17 17 17 17 17 17 17 17 17 17 17 17 17 17 17 17 17 17 17 17 17 17 17 17 17 17 17 17
C1(O)(OCC2(=CC(=O)OC(=C1)2))
InChI=1S/C7H6O4/c8-6-2-5-4(3-10-6)1-7(9)11-5/h1-2,6,8H,3H2
