20
metacyc CPD-20120  -32.964890832 -32.964890832 -32.964890832 -32.964890832 -32.964890832 -32.964890832 -32.964890832 -32.964890832 -32.964890832 -32.964890832 -32.964890832 -32.964890832 -32.964890832 -32.964890832 -32.964890832
C          1.21355       -0.24887        0.52221
C          2.58134        0.02824       -0.08465
C          3.16534        1.32697        0.37983
C          4.30058        1.51613        1.05807
O          5.22805        0.63523        1.51634
C          4.39354        2.97440        1.17909
O          5.28630        3.57604        1.75869
C          3.24095        3.60070        0.44540
C          3.71041        4.36446       -0.77763
O          2.44780        2.47051        0.01740
H          0.84020       -1.21879        0.17732
H          0.48397        0.51302        0.22779
H          1.26112       -0.27376        1.61575
H          2.49273        0.05296       -1.17717
H          3.24671       -0.80836        0.15357
H          4.97379       -0.26021        1.24503
H          2.64104        4.21438        1.12526
H          4.25945        3.70704       -1.46275
H          4.36895        5.19413       -0.50391
H          2.85471        4.75653       -1.33659
20 20 20 20 20 20 20 20 20 20 20 20 20 20 20 20 20 20 20 20 20 20 20 20 20 20 20 20 20 20 20 20 20 20 20 20 20 20 20 20 20 20 20 20 20 20 20 20 20 20 20 20 20 20 20
CCC1(=C(O)C(=O)C(C)O1)
InChI=1S/C7H10O3/c1-3-5-7(9)6(8)4(2)10-5/h4,9H,3H2,1-2H3
