20
metacyc CPD-17138  -785.14534016 -785.14534016 -785.14534016 -785.14534016 -785.14534016 -785.14534016 -785.14534016 -785.14534016 -785.14534016 -785.14534016 -785.14534016 -785.14534016 -785.14534016 -785.14534016 -785.14534016
C          0.95786        0.06381        0.12862
C          0.20608        0.21119       -1.21923
C         -0.15349        1.68625       -1.37781
C          1.14404        2.49738       -1.51179
C          1.95697        1.94657       -2.68492
C          2.12125        0.42327       -2.69793
O          1.00565       -0.27080       -2.33388
O          3.03961       -0.12130       -3.31082
O          1.30858        2.36482       -3.91630
O          0.84373        3.88603       -1.76769
O         -1.00660        2.17286       -0.33749
O          0.25429        0.35707        1.14113
O          2.18661       -0.19922        0.05768
H         -0.69944       -0.40415       -1.17581
H         -0.73268        1.81321       -2.30064
H          1.72086        2.47421       -0.58181
H          2.94877        2.41111       -2.68541
H          0.76549        1.61050       -4.21540
H          0.55834        3.92062       -2.70052
H         -0.68862        1.75458        0.50301
20 20 20 20 20 20 20 20 20 20 20 20 20 20 20 20 20 20 20 20 20 20 20 20 20 20 20 20 20 20 20 20 20 20 20 20 20 20 20 20 20 20 20 20 20 20 20 20 20 20 20 20 20 20 20
C(C1(C(C(C(C(O1)=O)O)O)O))([O-])=O
InChI=1S/C6H8O7/c7-1-2(8)4(5(10)11)13-6(12)3(1)9/h1-4,7-9H,(H,10,11)/p-1/t1-,2+,3+,4-/m0/s1
