13
metacyc CPD-18017  -286.50157568 -286.50157568 -286.50157568 -286.50157568 -286.50157568 -286.50157568 -286.50157568 -286.50157568 -286.50157568 -286.50157568 -286.50157568 -286.50157568 -286.50157568 -286.50157568 -286.50157568
C         -0.70739        1.16738       -0.01167
C          0.62630        1.29195       -0.03471
O          1.27273        2.51015       -0.06763
C          1.44235        0.03301       -0.02736
N          0.73415       -1.13887        0.01614
C         -0.62603       -1.24387        0.02899
O         -1.20444       -2.32471        0.04764
N         -1.31119       -0.05954        0.01754
O          2.66879        0.04146       -0.06084
H         -1.37548        2.02128       -0.01612
H          0.61415        3.22260       -0.07864
H          1.26521       -1.99495        0.01912
H         -2.32185       -0.14060        0.02838
13 13 13 13 13 13 13 13 13 13 13 13 13 13 13 13 13 13 13 13 13 13 13 13 13 13 13 13 13 13 13 13 13 13
C1(=C(O)C(NC(=O)N1)=O)
InChI=1S/C4H4N2O3/c7-2-1-5-4(9)6-3(2)8/h1,7H,(H2,5,6,8,9)
