13
metacyc CPD-16013  -137.38306256 -137.38306256 -137.38306256 -137.38306256 -137.38306256 -137.38306256 -137.38306256 -137.38306256 -137.38306256 -137.38306256 -137.38306256 -137.38306256 -137.38306256 -137.38306256 -137.38306256
C          1.11011       -0.00318        0.03605
C          2.62447        0.09830        0.02471
C          3.07578        1.45449       -0.47720
N          3.24778        1.67191       -1.75411
C          3.30083        2.56910        0.55863
O          2.62827        2.44783        1.63082
O          4.14872        3.47176        0.27869
H          0.79950       -0.98943        0.39533
H          0.69752        0.14116       -0.96774
H          0.66413        0.75275        0.68976
H          3.04086       -0.67680       -0.62760
H          3.02523       -0.07343        1.02913
H          3.04703        0.82299       -2.28145
13 13 13 13 13 13 13 13 13 13 13 13 13 13 13 13 13 13 13 13 13 13 13 13 13 13 13 13 13 13 13 13 13 13
CCC(=N)C(=O)[O-]
InChI=1S/C4H7NO2/c1-2-3(5)4(6)7/h5H,2H2,1H3,(H,6,7)/p-1
