14
metacyc CPD-654  -356.294611904 -356.294611904 -356.294611904 -356.294611904 -356.294611904 -356.294611904 -356.294611904 -356.294611904 -356.294611904 -356.294611904 -356.294611904 -356.294611904 -356.294611904 -356.294611904 -356.294611904
C          0.90281        0.06860       -0.02258
H          0.38443        0.70753        0.71318
O          0.25264       -0.61397       -0.80860
C          2.40698        0.12801        0.04583
C          3.07431       -0.76461       -0.98208
C          4.58887       -0.81429       -1.03927
C          5.51221       -0.00619       -0.10871
O          6.76807       -0.13611       -0.25832
O          4.94004        0.73907        0.74949
O          5.14254       -1.53977       -1.87471
H          2.68270       -0.17133        1.06248
H          2.68270        1.17659       -0.10803
H          2.73694       -0.46635       -1.98299
H          2.73694       -1.79746       -0.82707
14 14 14 14 14 14 14 14 14 14 14 14 14 14 14 14 14 14 14 14 14 14 14 14 14 14 14 14 14 14 14 14 14 14 14 14 14
[CH](=O)CCC(C([O-])=O)=O
InChI=1S/C5H6O4/c6-3-1-2-4(7)5(8)9/h3H,1-2H2,(H,8,9)/p-1
