9
metacyc CPD-16448  -115.673537576 -115.673537576 -115.673537576 -115.673537576 -115.673537576 -115.673537576 -115.673537576 -115.673537576 -115.673537576 -115.673537576 -115.673537576 -115.673537576 -115.673537576 -115.673537576 -115.673537576
C          0.90383       -0.74947        0.00586
O          1.87708       -1.47222       -0.10670
O         -0.41274       -1.14445        0.11681
N         -1.18352        0.02181        0.26542
C         -0.34784        1.08688        0.10913
C          0.92709        0.72402       -0.00454
H         -2.01580        0.03725       -0.32402
H         -0.75215        2.08963        0.08172
H          1.80986        1.31897       -0.13627
9 9 9 9 9 9 9 9 9 9 9 9 9 9 9 9 9 9 9 9 9 9
C1(=O)(ONC=C1)
InChI=1S/C3H3NO2/c5-3-1-2-4-6-3/h1-2,4H
