25
metacyc CPD-18781  -367.59184704 -367.59184704 -367.59184704 -367.59184704 -367.59184704 -367.59184704 -367.59184704 -367.59184704 -367.59184704 -367.59184704 -367.59184704 -367.59184704 -367.59184704 -367.59184704 -367.59184704
C          0.94449        0.15688        0.10204
O          0.35413       -0.20030       -1.13808
C          2.48480        0.08093        0.03820
O          2.98512        0.44006        1.34334
C          2.99635       -1.34477       -0.26643
O          2.38174       -2.27169        0.64735
C          2.75060       -1.78970       -1.71337
O          3.37376       -3.08247       -1.87015
C          3.32740       -0.79317       -2.72302
O          4.74909       -0.96485       -2.76633
C          2.90164        0.64318       -2.40273
O          2.62111        1.44527       -3.29182
C          3.05282        1.09033       -0.96248
H          0.55714       -0.50258        0.88717
H          0.61986        1.17062        0.36301
H         -0.56438       -0.46712       -0.94796
H          2.81661       -0.33488        1.91853
H          4.06962       -1.40422       -0.04267
H          2.43617       -3.14659        0.20871
H          1.68681       -1.96060       -1.89245
H          4.22577       -2.91826       -2.32765
H          2.95430       -1.05018       -3.72003
H          5.16879       -0.36822       -2.12152
H          2.57066        2.06648       -0.83573
H          4.12139        1.25449       -0.77499
25 25 25 25 25 25 25 25 25 25 25 25 25 25 25 25 25 25 25 25 25 25 25 25 25 25 25 25 25 25 25 25 25 25 25 25 25 25 25 25 25 25 25 25 25 25 25 25 25 25 25 25 25 25 25 25 25 25 25 25 25 25 25 25 25 25 25 25 25 25
C(O)C1(O)(C(O)C(O)C(O)C(=O)C1)
InChI=1S/C7H12O6/c8-2-7(13)1-3(9)4(10)5(11)6(7)12/h4-6,8,10-13H,1-2H2/t4-,5+,6-,7-/m0/s1
