22
metacyc CPD-14877  -186.200945296 -186.200945296 -186.200945296 -186.200945296 -186.200945296 -186.200945296 -186.200945296 -186.200945296 -186.200945296 -186.200945296 -186.200945296 -186.200945296 -186.200945296 -186.200945296 -186.200945296
C          1.03968        0.24468        0.06435
C          2.51764       -0.02029       -0.03636
O          2.95910       -0.79401       -0.87934
N          3.24220        0.74103        0.86961
C          4.65131        0.70281        0.93338
C          5.32391        1.92631        0.96902
C          6.72562        1.98378        0.89317
C          7.43563        3.31958        0.82880
O          6.70739        4.36140        0.88137
O          8.70121        3.29775        0.72422
C          7.44246        0.77579        0.84491
C          6.78251       -0.45360        0.88365
C          5.38881       -0.48549        0.93271
O          4.75839       -1.69418        1.06787
H          0.53215       -0.20652       -0.79339
H          0.83906        1.31977        0.05475
H          0.65202       -0.20048        0.98353
H          2.82215        1.61690        1.14983
H          4.77344        2.86502        0.98510
H          8.52922        0.80886        0.78298
H          7.36474       -1.36819        0.88954
H          5.26512       -2.33013        0.53927
22 22 22 22 22 22 22 22 22 22 22 22 22 22 22 22 22 22 22 22 22 22 22 22 22 22 22 22 22 22 22 22 22 22 22 22 22 22 22 22 22 22 22 22 22 22 22 22 22 22 22 22 22 22 22 22 22 22 22 22 22
CC(=O)NC1(=CC(C([O-])=O)=CC=C(O)1)
InChI=1S/C9H9NO4/c1-5(11)10-7-4-6(9(13)14)2-3-8(7)12/h2-4,12H,1H3,(H,10,11)(H,13,14)/p-1
