24
metacyc CPD-14805  -652.661114 -652.661114 -652.661114 -652.661114 -652.661114 -652.661114 -652.661114 -652.661114 -652.661114 -652.661114 -652.661114 -652.661114 -652.661114 -652.661114 -652.661114
C          0.78777       -0.11391        0.03456
O          0.29668        1.22128        0.12815
C          2.32552       -0.21260        0.00194
O          2.66125       -1.60423       -0.01332
C          2.92358        0.57242       -1.19787
O          2.53875        1.95391       -1.07599
C          4.46204        0.40036       -1.31970
O          4.75055       -1.00390       -1.45100
C          5.02149        1.19363       -2.50884
O          4.69385        2.60830       -2.38902
C          6.56621        1.04819       -2.57972
O          7.01724       -0.10793       -2.34560
O          7.16035        2.13176       -2.85986
H          0.35920       -0.57917       -0.85960
H          0.39583       -0.67317        0.89116
H          0.92439        1.77808       -0.38565
H          2.71471        0.22405        0.93048
H          3.54248       -1.67498       -0.44790
H          2.46792        0.18237       -2.11704
H          3.21399        2.46933       -1.58115
H          4.92904        0.75622       -0.39211
H          5.70728       -1.03567       -1.72811
H          4.60607        0.83644       -3.45727
H          5.56152        3.03191       -2.61788
24 24 24 24 24 24 24 24 24 24 24 24 24 24 24 24 24 24 24 24 24 24 24 24 24 24 24 24 24 24 24 24 24 24 24 24 24 24 24 24 24 24 24 24 24 24 24 24 24 24 24 24 24 24 24 24 24 24 24 24 24 24 24 24 24 24 24
C(O)C(O)C(O)C(O)C(O)C(=O)[O-]
InChI=1S/C6H12O7/c7-1-2(8)3(9)4(10)5(11)6(12)13/h2-5,7-11H,1H2,(H,12,13)/p-1/t2-,3-,4+,5-/m0/s1
