19
metacyc CPD-9134  -178.623989072 -178.623989072 -178.623989072 -178.623989072 -178.623989072 -178.623989072 -178.623989072 -178.623989072 -178.623989072 -178.623989072 -178.623989072 -178.623989072 -178.623989072 -178.623989072 -178.623989072
C          0.98892        0.01520        0.07986
C          2.48655        0.06767       -0.03279
C          3.24630        1.25287       -0.10726
N          2.60970        2.56009       -0.05815
O          1.94603        2.83275        0.94956
O          2.81717        3.31993       -1.01405
C          4.64663        1.24105       -0.23561
C          5.29503        0.01654       -0.28174
C          4.56633       -1.16717       -0.19789
C          3.18137       -1.15316       -0.07141
O          5.21157       -2.36917       -0.24743
O          6.65203       -0.08271       -0.40945
H          0.51019        0.99096       -0.02630
H          0.70235       -0.40194        1.05084
H          0.58123       -0.62202       -0.71283
H          5.20088        2.17315       -0.29566
H          2.64701       -2.09917       -0.01130
H          6.15783       -2.14310       -0.34929
H          7.02882        0.81221       -0.47675
19 19 19 19 19 19 19 19 19 19 19 19 19 19 19 19 19 19 19 19 19 19 19 19 19 19 19 19 19 19 19 19 19 19 19 19 19 19 19 19 19 19 19 19 19 19 19 19 19 19 19 19
CC1(C([N+](=O)[O-])=CC(=C(C=1)O)O)
InChI=1S/C7H7NO4/c1-4-2-6(9)7(10)3-5(4)8(11)12/h2-3,9-10H,1H3
