22
metacyc CPD-16411  -79.314238672 -79.314238672 -79.314238672 -79.314238672 -79.314238672 -79.314238672 -79.314238672 -79.314238672 -79.314238672 -79.314238672 -79.314238672 -79.314238672 -79.314238672 -79.314238672 -79.314238672
C          0.88349        0.12244        0.17595
C          2.40091        0.00747        0.01620
C          2.89740       -1.41665       -0.30748
O          2.36897       -2.38928        0.58734
C          2.60299       -1.80420       -1.75810
C          3.05789       -0.71309       -2.72079
O          4.49641       -0.67344       -2.75645
C          2.53105        0.67037       -2.29071
O          3.09798        1.67218       -3.12481
O          2.90278        0.95071       -0.94247
H          0.52831       -0.47298        1.02273
H          0.34671       -0.21260       -0.71653
H          0.59796        1.16618        0.34499
H          2.83188        0.29712        0.98254
H          3.98579       -1.42835       -0.17139
H          1.44124       -2.56631        0.35373
H          1.52868       -1.98811       -1.88318
H          3.10543       -2.75272       -1.98259
H          2.73263       -0.93990       -3.74146
H          4.79627       -0.23214       -1.93791
H          1.44457        0.73389       -2.40091
H          3.98295        1.34496       -3.36869
22 22 22 22 22 22 22 22 22 22 22 22 22 22 22 22 22 22 22 22 22 22 22 22 22 22 22 22 22 22 22 22 22 22 22 22 22 22 22 22 22 22 22 22 22 22 22 22 22 22 22 22 22 22 22 22 22 22 22 22 22
CC1(C(O)CC(O)C(O)O1)
InChI=1S/C6H12O4/c1-3-4(7)2-5(8)6(9)10-3/h3-9H,2H2,1H3/t3-,4-,5-,6+/m1/s1
