16
metacyc CPD-7066  -589.15539968 -589.15539968 -589.15539968 -589.15539968 -589.15539968 -589.15539968 -589.15539968 -589.15539968 -589.15539968 -589.15539968 -589.15539968 -589.15539968 -589.15539968 -589.15539968 -589.15539968
C          0.99058        0.15206        0.00945
C          2.51572        0.23790        0.05597
C          3.02905        1.69273        0.09676
O          2.15433        2.61127        0.09102
O          4.28883        1.84022        0.01687
C          3.11197       -0.60540        1.19067
O          2.55003       -0.20946        2.47683
C          2.81352       -2.13917        0.99543
O          3.34444       -2.73026        0.01539
O          2.05739       -2.62350        1.90646
H          0.58982        0.74405       -0.82036
H          0.53504        0.52307        0.93221
H          0.65834       -0.88006       -0.14329
H          2.88652       -0.16258       -0.89830
H          4.19844       -0.48235        1.26284
H          2.04191       -1.01770        2.72404
16 16 16 16 16 16 16 16 16 16 16 16 16 16 16 16 16 16 16 16 16 16 16 16 16 16 16 16 16 16 16 16 16 16 16 16 16 16 16 16 16 16 16
CC(C(=O)[O-])C(O)C([O-])=O
InChI=1S/C5H8O5/c1-2(4(7)8)3(6)5(9)10/h2-3,6H,1H3,(H,7,8)(H,9,10)/p-2/t2-,3+/m0/s1
