15
metacyc CPD-16942  -168.716549032 -168.716549032 -168.716549032 -168.716549032 -168.716549032 -168.716549032 -168.716549032 -168.716549032 -168.716549032 -168.716549032 -168.716549032 -168.716549032 -168.716549032 -168.716549032 -168.716549032
C          2.85694        0.01195        1.46533
C          2.63511       -0.08385       -0.02363
O          1.85573       -0.92102       -0.48488
C          3.35238        0.91614       -0.90449
C          4.86298        0.79170       -0.79617
C          5.63049        1.78923       -1.65970
O          4.93892        2.61081       -2.31875
O          6.88681        1.67313       -1.58295
H          2.21625       -0.71249        1.97670
H          2.59717        1.01462        1.81245
H          3.89576       -0.21933        1.71001
H          3.01238        1.91852       -0.61986
H          3.03093        0.74824       -1.93944
H          5.17193       -0.22291       -1.07554
H          5.18530        0.95137        0.23952
15 15 15 15 15 15 15 15 15 15 15 15 15 15 15 15 15 15 15 15 15 15 15 15 15 15 15 15 15 15 15 15 15 15 15 15 15 15 15 15
CC(=O)CCC(=O)[O-]
InChI=1S/C5H8O3/c1-4(6)2-3-5(7)8/h2-3H2,1H3,(H,7,8)/p-1
