16
metacyc CPD-664  -67.445690888 -67.445690888 -67.445690888 -67.445690888 -67.445690888 -67.445690888 -67.445690888 -67.445690888 -67.445690888 -67.445690888 -67.445690888 -67.445690888 -67.445690888 -67.445690888 -67.445690888
C          0.29836       -1.24686        0.17312
C         -0.99766       -0.70418       -0.43052
C         -1.15418        0.63656        0.26381
O         -1.75415        0.39460        1.54063
C          0.30270        1.13955        0.30826
N          1.17079       -0.09098        0.41153
C          0.48546        2.25430        1.37895
O          0.08465        1.97655        2.55608
O          0.92441        3.36834        0.95360
H          0.74953       -1.98864       -0.49425
H          0.07865       -1.75892        1.11744
H         -1.83356       -1.38825       -0.25435
H         -0.87811       -0.56449       -1.51153
H         -1.80904        1.31656       -0.29065
H         -1.06119        0.72753        2.16744
H          0.51527        1.60266       -0.66847
16 16 16 16 16 16 16 16 16 16 16 16 16 16 16 16 16 16 16 16 16 16 16 16 16 16 16 16 16 16 16 16 16 16 16 16 16 16 16 16 16 16 16
C1(CC(O)C([N+]1)C(=O)[O-])
InChI=1S/C5H9NO3/c7-3-1-2-6-4(3)5(8)9/h3-4,6-7H,1-2H2,(H,8,9)/t3-,4-/m0/s1
