18
metacyc CPD-635  -731.37893184 -731.37893184 -731.37893184 -731.37893184 -731.37893184 -731.37893184 -731.37893184 -731.37893184 -731.37893184 -731.37893184 -731.37893184 -731.37893184 -731.37893184 -731.37893184 -731.37893184
C          0.95928        0.23199        0.12131
O          0.51018        1.09484       -0.71280
O          0.28225       -0.30889        1.04762
C          2.46986        0.06779        0.14085
C          3.21865        1.27208        0.14853
C          4.60850        1.27593        0.19383
C          5.26793        0.05985        0.20116
C          4.55904       -1.14940        0.17297
C          3.15346       -1.18021        0.17109
C          2.43080       -2.50625        0.17506
O          1.68589       -2.77258       -0.82503
O          2.70122       -3.32027        1.12488
O          5.31504       -2.29547        0.10931
O          6.64121        0.00377        0.22843
H          2.67189        2.21396        0.12465
H          5.13327        2.22148        0.20769
H          6.23050       -1.98068        0.18109
H          6.94686        0.92135        0.30830
18 18 18 18 18 18 18 18 18 18 18 18 18 18 18 18 18 18 18 18 18 18 18 18 18 18 18 18 18 18 18 18 18 18 18 18 18 18 18 18 18 18 18 18 18 18 18 18 18
C([O-])(=O)C1(C=CC(=C(C=1C([O-])=O)O)O)
InChI=1S/C8H6O6/c9-4-2-1-3(7(11)12)5(6(4)10)8(13)14/h1-2,9-10H,(H,11,12)(H,13,14)/p-2
