11
metacyc CPD-2482  -6.1262960616 -6.1262960616 -6.1262960616 -6.1262960616 -6.1262960616 -6.1262960616 -6.1262960616 -6.1262960616 -6.1262960616 -6.1262960616 -6.1262960616 -6.1262960616 -6.1262960616 -6.1262960616 -6.1262960616
C         -0.69536       -0.94407       -0.28261
O         -1.11142        0.37924        0.08769
N          0.07073        1.15703        0.06325
C          1.19120        0.37360       -0.10452
O          2.31478        0.80343       -0.31442
C          0.76976       -1.04915        0.09184
N          1.50270       -1.94429       -0.78654
H         -0.87126       -1.05896       -1.35941
H         -1.30734       -1.68045        0.24757
H          0.03163        2.13355       -0.20156
H          0.90584       -1.31351        1.14517
11 11 11 11 11 11 11 11 11 11 11 11 11 11 11 11 11 11 11 11 11 11 11 11 11 11 11 11
C1(ONC(=O)C([N+])1)
InChI=1S/C3H6N2O2/c4-2-1-7-5-3(2)6/h2H,1,4H2,(H,5,6)/p+1/t2-/m1/s1
