13
metacyc CPD-12738  -596.11682256 -596.11682256 -596.11682256 -596.11682256 -596.11682256 -596.11682256 -596.11682256 -596.11682256 -596.11682256 -596.11682256 -596.11682256 -596.11682256 -596.11682256 -596.11682256 -596.11682256
C          0.98936       -0.08776       -0.00610
O          0.38747       -0.13207       -1.12339
O          0.49322       -0.18688        1.15811
C          2.54706       -0.06738       -0.07329
O          3.01310       -0.16242       -1.44471
C          3.09884        1.14071        0.67932
N          4.57531        1.04981        0.74908
C          2.78695        2.56128        0.15222
O          2.55178        2.69135       -1.08587
O          2.84173        3.49096        1.02346
H          2.88908       -0.98806        0.41699
H          2.36114        0.41692       -1.90580
H          2.73345        1.10443        1.71361
13 13 13 13 13 13 13 13 13 13 13 13 13 13 13 13 13 13 13 13 13 13 13 13 13 13 13 13 13 13 13 13 13 13
C([O-])(=O)C(O)C([N+])C([O-])=O
InChI=1S/C4H7NO5/c5-1(3(7)8)2(6)4(9)10/h1-2,6H,5H2,(H,7,8)(H,9,10)/p-1/t1-,2-/m1/s1
