14
metacyc CPD-10204  -203.31428352 -203.31428352 -203.31428352 -203.31428352 -203.31428352 -203.31428352 -203.31428352 -203.31428352 -203.31428352 -203.31428352 -203.31428352 -203.31428352 -203.31428352 -203.31428352 -203.31428352
C          1.06366        0.01143       -0.08010
C          2.54315       -0.14032       -0.16316
C          3.25279       -1.27042       -0.15417
O          2.86334       -2.57070       -0.07252
C          4.63946       -0.80760       -0.26394
O          5.62583       -1.52835       -0.26172
C          4.64710        0.68420       -0.38500
O          3.25830        1.05608       -0.26646
H          0.54351       -0.95034       -0.09582
H          0.69617        0.60159       -0.92502
H          0.78921        0.52845        0.84484
H          1.89609       -2.60799       -0.03074
H          5.01670        0.99138       -1.36668
H          5.21305        1.14521        0.42838
14 14 14 14 14 14 14 14 14 14 14 14 14 14 14 14 14 14 14 14 14 14 14 14 14 14 14 14 14 14 14 14 14 14 14 14 14
CC1(=C(O)C(=O)CO1)
InChI=1S/C5H6O3/c1-3-5(7)4(6)2-8-3/h7H,2H2,1H3
