15
metacyc CPD-7299  -432.19236772 -432.19236772 -432.19236772 -432.19236772 -432.19236772 -432.19236772 -432.19236772 -432.19236772 -432.19236772 -432.19236772 -432.19236772 -432.19236772 -432.19236772 -432.19236772 -432.19236772
C          0.96414       -0.07847       -0.04723
N          0.35308       -1.01438       -0.85392
C          0.91639       -1.95840       -1.66768
N          2.26947       -1.99122       -1.69590
O          0.26660       -2.74695       -2.34748
C          0.09950        0.85559        0.75793
C         -1.40230        0.71969        0.64078
O         -1.83834       -0.17867       -0.13364
O         -2.05755        1.53773        1.34595
O          2.19726        0.01798        0.03588
H         -0.67626       -0.99940       -0.84106
H          2.78905       -1.32973       -1.12588
H          2.73929       -2.66472       -2.27668
H          0.36744        1.87793        0.46546
H          0.36744        0.71700        1.81223
15 15 15 15 15 15 15 15 15 15 15 15 15 15 15 15 15 15 15 15 15 15 15 15 15 15 15 15 15 15 15 15 15 15 15 15 15 15 15 15
C(NC(N)=O)(CC(=O)[O-])=O
InChI=1S/C4H6N2O4/c5-4(10)6-2(7)1-3(8)9/h1H2,(H,8,9)(H3,5,6,7,10)/p-1
