15
metacyc CPD-9135  -104.37596772 -104.37596772 -104.37596772 -104.37596772 -104.37596772 -104.37596772 -104.37596772 -104.37596772 -104.37596772 -104.37596772 -104.37596772 -104.37596772 -104.37596772 -104.37596772 -104.37596772
C          1.06048        0.01990        0.01949
C          2.54865        0.10502       -0.05713
C          3.22522        1.25652       -0.10036
C          4.70352        1.33743       -0.18150
O          5.19788        2.46172       -0.09018
C          5.48367        0.03609       -0.37653
O          6.72759        0.12909       -0.57968
C          4.75187       -1.09172       -0.30527
C          3.29772       -1.16812       -0.08784
O          2.72641       -2.24820        0.04204
H          0.59325        1.00918       -0.02376
H          0.74893       -0.45671        0.95368
H          0.66670       -0.56553       -0.81904
H          2.72793        2.21726       -0.06688
H          5.24364       -2.05201       -0.41877
15 15 15 15 15 15 15 15 15 15 15 15 15 15 15 15 15 15 15 15 15 15 15 15 15 15 15 15 15 15 15 15 15 15 15 15 15 15 15 15
CC1(=CC(=O)C([O-])=CC1=O)
InChI=1S/C7H6O3/c1-4-2-6(9)7(10)3-5(4)8/h2-3,10H,1H3/p-1
