19
metacyc CPD-13122  -632.55481832 -632.55481832 -632.55481832 -632.55481832 -632.55481832 -632.55481832 -632.55481832 -632.55481832 -632.55481832 -632.55481832 -632.55481832 -632.55481832 -632.55481832 -632.55481832 -632.55481832
C          0.93759       -0.05104       -0.02889
C          0.15052        1.30136       -0.22741
O         -1.16056        1.20084       -0.61136
C         -1.94816        2.36399       -0.78914
C         -1.35387        3.76040       -0.49671
C          0.15048        3.78804       -0.18989
C          0.78544        2.45774       -0.02250
O          0.40997        4.55147        0.99924
O         -2.12405        4.38928        0.55926
O         -2.46685        2.34011       -2.12236
O          1.97185        0.03133        0.70028
O          0.45445       -1.05053       -0.63178
H         -2.82105        2.22452       -0.13887
H         -1.52462        4.40397       -1.36857
H          0.67076        4.29407       -1.00989
H          1.83482        2.43781        0.25773
H          0.56367        3.91773        1.72239
H         -1.69830        4.11473        1.39020
H         -1.74700        1.91246       -2.61814
19 19 19 19 19 19 19 19 19 19 19 19 19 19 19 19 19 19 19 19 19 19 19 19 19 19 19 19 19 19 19 19 19 19 19 19 19 19 19 19 19 19 19 19 19 19 19 19 19 19 19 19
C(C1(OC(C(C(C=1)O)O)O))([O-])=O
InChI=1S/C6H8O6/c7-2-1-3(5(9)10)12-6(11)4(2)8/h1-2,4,6-8,11H,(H,9,10)/p-1/t2-,4+,6?/m0/s1
