15
metacyc CPD-15041  -384.7091768 -384.7091768 -384.7091768 -384.7091768 -384.7091768 -384.7091768 -384.7091768 -384.7091768 -384.7091768 -384.7091768 -384.7091768 -384.7091768 -384.7091768 -384.7091768 -384.7091768
C         -0.22596        0.67600        0.01112
N         -1.51615        1.11308        0.04368
C         -2.36895       -0.00695        0.06908
O         -3.58751       -0.00774        0.09120
N         -1.51265       -1.12015        0.05757
C         -0.23281       -0.65247        0.02000
C          1.04149       -1.36858       -0.02342
O          1.03386       -2.59910       -0.01080
N          2.13827       -0.59578       -0.07692
C          1.96478        0.72596       -0.08015
O          3.15896        1.33686       -0.14173
N          0.88391        1.44009       -0.03774
H         -1.78810        2.07814        0.03563
H         -1.76152       -2.09401        0.06044
H          3.81257        0.62111       -0.17241
15 15 15 15 15 15 15 15 15 15 15 15 15 15 15 15 15 15 15 15 15 15 15 15 15 15 15 15 15 15 15 15 15 15 15 15 15 15 15 15
C12(NC(=O)NC=1C(=O)[N-]C(O)=N2)
InChI=1S/C5H4N4O3/c10-3-1-2(7-4(11)6-1)8-5(12)9-3/h(H4,6,7,8,9,10,11,12)/p-1
