19
metacyc CPD-9132  -157.24844352 -157.24844352 -157.24844352 -157.24844352 -157.24844352 -157.24844352 -157.24844352 -157.24844352 -157.24844352 -157.24844352 -157.24844352 -157.24844352 -157.24844352 -157.24844352 -157.24844352
C          1.06761        0.08662        0.07504
C          2.56844        0.06147       -0.02462
C          3.27299        1.27511       -0.06970
C          4.66521        1.29323       -0.21220
C          5.37274        0.08792       -0.31453
C          4.70343       -1.13789       -0.26424
C          3.30934       -1.13374       -0.11539
N          2.64237       -2.42849       -0.07361
O          1.96222       -2.68567        0.92666
O          2.83182       -3.18486       -1.03408
N          6.83234        0.11503       -0.48374
O          7.38447        1.22192       -0.54716
O          7.42112       -0.97245       -0.55315
H          0.68929        1.11320        0.12920
H          0.72454       -0.42842        0.97672
H          0.62364       -0.38016       -0.81028
H          2.74104        2.22395       -0.00329
H          5.17812        2.25410       -0.24920
H          5.24384       -2.08013       -0.34205
19 19 19 19 19 19 19 19 19 19 19 19 19 19 19 19 19 19 19 19 19 19 19 19 19 19 19 19 19 19 19 19 19 19 19 19 19 19 19 19 19 19 19 19 19 19 19 19 19 19 19 19
CC1(C=CC(=CC=1[N+](=O)[O-])[N+]([O-])=O)
InChI=1S/C7H6N2O4/c1-5-2-3-6(8(10)11)4-7(5)9(12)13/h2-4H,1H3
