18
metacyc CPD-636  -731.37893184 -731.37893184 -731.37893184 -731.37893184 -731.37893184 -731.37893184 -731.37893184 -731.37893184 -731.37893184 -731.37893184 -731.37893184 -731.37893184 -731.37893184 -731.37893184 -731.37893184
C          0.88079        0.18970        0.18457
O          0.31517        1.13767       -0.46666
O          0.33121       -0.47672        1.11655
C          2.38065        0.05841       -0.01476
C          3.09858        1.27371       -0.10036
C          4.48081        1.28196       -0.23155
C          5.18289        0.08923       -0.26965
C          4.51349       -1.11926       -0.18970
C          3.09958       -1.16457       -0.07113
C          2.46632       -2.54226       -0.08239
O          1.50705       -2.75411       -0.89039
O          3.07404       -3.44944        0.58494
O          6.54726        0.11583       -0.40685
O          5.18033        2.45833       -0.32359
H          2.53103        2.20063       -0.05551
H          5.06578       -2.05476       -0.23304
H          6.73805        1.07119       -0.45101
H          4.50090        3.15476       -0.30164
18 18 18 18 18 18 18 18 18 18 18 18 18 18 18 18 18 18 18 18 18 18 18 18 18 18 18 18 18 18 18 18 18 18 18 18 18 18 18 18 18 18 18 18 18 18 18 18 18
C([O-])(=O)C1(C=C(C(=CC=1C([O-])=O)O)O)
InChI=1S/C8H6O6/c9-5-1-3(7(11)12)4(8(13)14)2-6(5)10/h1-2,9-10H,(H,11,12)(H,13,14)/p-2
