21
metacyc CPD-9793  -158.777009344 -158.777009344 -158.777009344 -158.777009344 -158.777009344 -158.777009344 -158.777009344 -158.777009344 -158.777009344 -158.777009344 -158.777009344 -158.777009344 -158.777009344 -158.777009344 -158.777009344
C          0.94171       -0.02311       -0.16008
O          0.28150       -0.84530        0.52925
O          0.51591        0.87969       -0.94096
C          2.47207       -0.10005       -0.06973
C          3.03777       -1.16836        0.86530
C          4.57283       -1.15756        0.88106
C          5.13351       -2.22143        1.83971
C          6.66602       -2.27672        1.86494
N          7.23247       -1.01388        2.36092
C          7.24001       -3.40014        2.77033
O          6.54525       -3.74463        3.77157
O          8.35099       -3.88303        2.38716
H          2.83041        0.88550        0.25174
H          2.85186       -0.26825       -1.08387
H          2.68281       -2.15721        0.55077
H          2.66171       -1.00241        1.88175
H          4.92109       -0.16236        1.18204
H          4.95151       -1.34040       -0.13171
H          4.75359       -3.20605        1.53640
H          4.74207       -2.03794        2.84790
H          7.03423       -2.44202        0.84485
21 21 21 21 21 21 21 21 21 21 21 21 21 21 21 21 21 21 21 21 21 21 21 21 21 21 21 21 21 21 21 21 21 21 21 21 21 21 21 21 21 21 21 21 21 21 21 21 21 21 21 21 21 21 21 21 21 21
C([O-])(=O)CCCCC([N+])C([O-])=O
InChI=1S/C7H13NO4/c8-5(7(11)12)3-1-2-4-6(9)10/h5H,1-4,8H2,(H,9,10)(H,11,12)/p-1
