17
metacyc CPD-1071  -148.763559296 -148.763559296 -148.763559296 -148.763559296 -148.763559296 -148.763559296 -148.763559296 -148.763559296 -148.763559296 -148.763559296 -148.763559296 -148.763559296 -148.763559296 -148.763559296 -148.763559296
C          0.97309        0.00179       -0.02713
C          2.46207        0.16161       -0.02405
C          3.11796        1.39551       -0.02311
C          4.50978        1.41825       -0.02046
C          5.23442        0.22248       -0.01870
C          4.50049       -0.95398       -0.01999
N          3.14066       -1.01487       -0.02262
C          6.73469        0.19150       -0.01542
O          7.33895        1.30928       -0.01364
O          7.28788       -0.95276       -0.01460
O          2.50103        2.61462       -0.02452
H          0.42429        0.94469       -0.02647
H          0.66348       -0.56047        0.86011
H          0.66677       -0.55753       -0.91737
H          5.04521        2.36531       -0.01959
H          5.00519       -1.91818       -0.01885
H          1.54265        2.49814       -0.02264
17 17 17 17 17 17 17 17 17 17 17 17 17 17 17 17 17 17 17 17 17 17 17 17 17 17 17 17 17 17 17 17 17 17 17 17 17 17 17 17 17 17 17 17 17 17
CC1(=C(C=C(C=N1)C([O-])=O)O)
InChI=1S/C7H7NO3/c1-4-6(9)2-5(3-8-4)7(10)11/h2-3,9H,1H3,(H,10,11)/p-1
