19
metacyc CPD-18012  -288.32374952 -288.32374952 -288.32374952 -288.32374952 -288.32374952 -288.32374952 -288.32374952 -288.32374952 -288.32374952 -288.32374952 -288.32374952 -288.32374952 -288.32374952 -288.32374952 -288.32374952
C          0.80968        0.08652        0.15794
C          2.33951        0.05605        0.09069
O          2.81957        0.38697        1.39482
C          2.90277       -1.31546       -0.33143
O          2.41785       -2.35505        0.49834
N          2.55941       -1.67782       -1.66532
C          2.69571       -0.76643       -2.66776
O          2.78763       -1.11704       -3.83724
N          2.74815        0.54442       -2.29352
C          2.81384        1.02527       -1.00529
O          3.21283        2.16828       -0.79325
H          0.43374       -0.57858        0.94313
H          0.34093       -0.19314       -0.79094
H          0.46137        1.09436        0.41399
H          2.83153       -0.43814        1.91592
H          3.99646       -1.31512       -0.24850
H          1.53416       -2.57763        0.15767
H          2.73428       -2.62931       -1.96525
H          2.99996        1.19609       -3.02367
19 19 19 19 19 19 19 19 19 19 19 19 19 19 19 19 19 19 19 19 19 19 19 19 19 19 19 19 19 19 19 19 19 19 19 19 19 19 19 19 19 19 19 19 19 19 19 19 19 19 19 19
CC1(O)(C(O)NC(=O)NC(=O)1)
InChI=1S/C5H8N2O4/c1-5(11)2(8)6-4(10)7-3(5)9/h2,8,11H,1H3,(H2,6,7,9,10)
