7
metacyc CPD-19231  -168.596426392 -168.596426392 -168.596426392 -168.596426392 -168.596426392 -168.596426392 -168.596426392 -168.596426392 -168.596426392 -168.596426392 -168.596426392 -168.596426392 -168.596426392 -168.596426392 -168.596426392
C          1.10066       -0.02381       -0.00343
O          0.63428        1.29404       -0.17930
O          2.50946       -0.02063       -0.00209
H          0.74064       -0.64819       -0.82610
H          0.73776       -0.41292        0.95203
H         -0.33450        1.25050       -0.18764
H          2.79267       -0.94168        0.10447
7 7 7 7 7 7 7 7 7 7 7 7 7 7 7 7
C(O)O
InChI=1S/CH4O2/c2-1-3/h2-3H,1H2
