19
metacyc CPD-18128  -420.10062864 -420.10062864 -420.10062864 -420.10062864 -420.10062864 -420.10062864 -420.10062864 -420.10062864 -420.10062864 -420.10062864 -420.10062864 -420.10062864 -420.10062864 -420.10062864 -420.10062864
C          0.90305        0.05584       -0.04210
H          0.39925       -0.92492       -0.04388
O          0.27200        1.10462       -0.04066
C          2.37940       -0.02074       -0.04152
C          3.13377        1.08845       -0.03881
C          4.59658        1.10185       -0.03736
C          5.23404        2.28626       -0.03729
C          6.70681        2.40054       -0.03517
O          7.22152        3.51677       -0.03529
O          7.43037        1.24838       -0.03313
C          6.76318       -0.00159       -0.03299
C          7.63684       -1.28711       -0.03021
O          8.88516       -1.09946       -0.02670
O          6.99181       -2.37904       -0.03175
C          5.42745       -0.08449       -0.03494
H          2.79009       -1.02227       -0.04322
H          2.63590        2.05862       -0.03727
H          4.71315        3.23544       -0.03873
H          4.96851       -1.06761       -0.03443
19 19 19 19 19 19 19 19 19 19 19 19 19 19 19 19 19 19 19 19 19 19 19 19 19 19 19 19 19 19 19 19 19 19 19 19 19 19 19 19 19 19 19 19 19 19 19 19 19 19 19 19
[CH](=O)C=CC1(=CC(=O)OC(C([O-])=O)=C1)
InChI=1S/C9H6O5/c10-3-1-2-6-4-7(9(12)13)14-8(11)5-6/h1-5H,(H,12,13)/p-1/b2-1+
