24
metacyc CPD-12101  -98.17467304 -98.17467304 -98.17467304 -98.17467304 -98.17467304 -98.17467304 -98.17467304 -98.17467304 -98.17467304 -98.17467304 -98.17467304 -98.17467304 -98.17467304 -98.17467304 -98.17467304
C          0.86200        1.71421        0.76240
C          2.33175        1.71725        0.41075
O          2.78144        2.51595       -0.40970
N          3.07992        0.73381        1.01969
O          2.51020        0.08767        2.13873
C          4.54100        0.76699        1.06865
C          5.07900        1.61712        2.22283
C          6.61220        1.66748        2.20706
C          7.20437        2.48400        3.36106
N          6.88739        1.86192        4.65364
C          8.74892        2.59639        3.28587
O          9.35565        1.65154        2.69935
O          9.23463        3.65614        3.78623
H          0.33932        2.45916        0.15486
H          0.72941        1.97083        1.81666
H          0.42775        0.73245        0.55375
H          2.21170       -0.75250        1.74496
H          4.90676        1.16532        0.11436
H          4.89159       -0.26760        1.16083
H          4.72711        1.19474        3.17135
H          4.67391        2.63410        2.15999
H          6.94487        2.10583        1.25689
H          7.00497        0.64227        2.22632
H          6.78150        3.49549        3.34523
24 24 24 24 24 24 24 24 24 24 24 24 24 24 24 24 24 24 24 24 24 24 24 24 24 24 24 24 24 24 24 24 24 24 24 24 24 24 24 24 24 24 24 24 24 24 24 24 24 24 24 24 24 24 24 24 24 24 24 24 24 24 24 24 24 24 24
CC(=O)N(O)CCCC([N+])C(=O)[O-]
InChI=1S/C7H14N2O4/c1-5(10)9(13)4-2-3-6(8)7(11)12/h6,13H,2-4,8H2,1H3,(H,11,12)/t6-/m0/s1
