14
metacyc CPD-19883  -561.89638864 -561.89638864 -561.89638864 -561.89638864 -561.89638864 -561.89638864 -561.89638864 -561.89638864 -561.89638864 -561.89638864 -561.89638864 -561.89638864 -561.89638864 -561.89638864 -561.89638864
C          0.95035        0.05523       -0.07056
C          0.37191       -0.11438        1.34244
C          0.87573        1.06435        2.18200
C         -0.12444        2.01956        2.81688
O          0.31477        2.97825        3.51943
O         -1.34427        1.75060        2.56267
O          2.08054        1.30533        2.31684
O         -1.02152       -0.36074        1.22607
O          2.37724       -0.03798       -0.10240
H          0.65819        1.02007       -0.50056
H          0.55734       -0.72110       -0.73597
H          0.80688       -1.00793        1.80548
H         -1.47371        0.39117        1.69410
H          2.70674        0.54939        0.61351
14 14 14 14 14 14 14 14 14 14 14 14 14 14 14 14 14 14 14 14 14 14 14 14 14 14 14 14 14 14 14 14 14 14 14 14 14
C(C(C(C(=O)[O-])=O)O)O
InChI=1S/C4H6O5/c5-1-2(6)3(7)4(8)9/h2,5-6H,1H2,(H,8,9)/p-1/t2-/m1/s1
