8
metacyc CPD-18959  -24.1229260568 -24.1229260568 -24.1229260568 -24.1229260568 -24.1229260568 -24.1229260568 -24.1229260568 -24.1229260568 -24.1229260568 -24.1229260568 -24.1229260568 -24.1229260568 -24.1229260568 -24.1229260568 -24.1229260568
C          1.11850       -0.03737       -0.08455
H          0.71344        0.52849       -0.93782
O          0.43506       -0.59645        0.75764
O          2.47302       -0.00253       -0.13602
C          3.10832       -0.70930        0.92982
H          4.19025       -0.62158        0.79733
H          2.84062       -1.77022        0.89990
H          2.84076       -0.26867        1.89540
8 8 8 8 8 8 8 8 8 8 8 8 8 8 8 8 8 8 8
[CH](=O)OC
InChI=1S/C2H4O2/c1-4-2-3/h2H,1H3
