21
metacyc CPD-18132  -316.66277648 -316.66277648 -316.66277648 -316.66277648 -316.66277648 -316.66277648 -316.66277648 -316.66277648 -316.66277648 -316.66277648 -316.66277648 -316.66277648 -316.66277648 -316.66277648 -316.66277648
C          1.04761        0.13204       -0.07429
H          0.62086        1.14786       -0.07482
O          0.33857       -0.86743       -0.07010
C          2.51949        0.03940       -0.07915
C          3.27305        1.14854       -0.10323
C          4.73465        1.17418       -0.08980
C          5.39218        2.34523       -0.11058
C          6.82921        2.35731       -0.09045
C          7.53729        1.21851       -0.12743
C          9.10578        1.27061       -0.11939
O          9.61081        2.43240       -0.08620
O          9.68989        0.14911       -0.13845
O          6.94893       -0.03364       -0.17540
C          5.53189       -0.12501       -0.05532
O          5.23336       -0.79851        1.16587
H          2.92197       -0.96624       -0.04640
H          2.78851        2.12358       -0.12651
H          4.89286        3.30776       -0.13471
H          7.33725        3.31860       -0.06102
H          5.20070       -0.76893       -0.87767
H          5.72880       -0.26775        1.81380
21 21 21 21 21 21 21 21 21 21 21 21 21 21 21 21 21 21 21 21 21 21 21 21 21 21 21 21 21 21 21 21 21 21 21 21 21 21 21 21 21 21 21 21 21 21 21 21 21 21 21 21 21 21 21 21 21 21
[CH](=O)C=CC1(=CC=C(C([O-])=O)OC(O)1)
InChI=1S/C9H8O5/c10-5-1-2-6-3-4-7(8(11)12)14-9(6)13/h1-5,9,13H,(H,11,12)/p-1/b2-1+
