24
metacyc CPD-13036  -393.99290796 -393.99290796 -393.99290796 -393.99290796 -393.99290796 -393.99290796 -393.99290796 -393.99290796 -393.99290796 -393.99290796 -393.99290796 -393.99290796 -393.99290796 -393.99290796 -393.99290796
C          2.81468       -0.02978       -1.43257
O          2.19732       -1.18867       -1.98916
C          2.58767        0.03627        0.08636
O          1.16643        0.12119        0.30111
C          3.12870       -1.17769        0.86666
O          2.49471       -2.37253        0.40403
C          4.65266       -1.25734        0.76194
O          5.19929       -1.87800       -0.15384
C          5.45317       -0.48906        1.81543
O          5.14865       -0.97379        3.11962
C          6.96062       -0.58785        1.54174
O          7.71596        0.07600        2.55440
H          2.37553        0.84441       -1.92496
H          3.88001       -0.05802       -1.67662
H          1.23594       -1.01711       -1.97726
H          3.03161        0.96190        0.46913
H          0.84599       -0.80440        0.32717
H          2.84816       -1.09067        1.92181
H          2.77067       -2.48373       -0.53301
H          5.14922        0.56246        1.78332
H          5.72924       -1.73865        3.29740
H          7.21655       -0.14844        0.57217
H          7.28808       -1.63257        1.53902
H          7.36284        0.97541        2.66307
24 24 24 24 24 24 24 24 24 24 24 24 24 24 24 24 24 24 24 24 24 24 24 24 24 24 24 24 24 24 24 24 24 24 24 24 24 24 24 24 24 24 24 24 24 24 24 24 24 24 24 24 24 24 24 24 24 24 24 24 24 24 24 24 24 24 24
C(O)C(O)C(O)C(=O)C(O)CO
InChI=1S/C6H12O6/c7-1-3(9)5(11)6(12)4(10)2-8/h3-5,7-11H,1-2H2/t3-,4+,5+/m0/s1
