19
metacyc CPD-6365  -206.373026008 -206.373026008 -206.373026008 -206.373026008 -206.373026008 -206.373026008 -206.373026008 -206.373026008 -206.373026008 -206.373026008 -206.373026008 -206.373026008 -206.373026008 -206.373026008 -206.373026008
C          2.40501       -0.67778       -0.12892
C          2.40004        0.71320       -0.05119
C          1.18837        1.39665        0.03400
C         -0.01840        0.68923        0.03673
O         -1.15166        1.45747        0.15590
C         -2.30853        0.77657       -0.30403
C         -2.47938       -0.70179        0.15088
N         -1.27068       -1.39221        0.07387
C         -0.03001       -0.71577       -0.01782
C          1.19856       -1.38559       -0.10994
O         -1.26964       -2.76847        0.26292
O         -3.59199       -1.11737        0.48896
O         -3.46491        1.54710        0.05756
H          3.34211       -1.22266       -0.18866
H          3.33619        1.26261       -0.04868
H          1.17506        2.47936        0.10212
H         -2.29048        0.76909       -1.40213
H          1.21531       -2.47190       -0.15196
H         -3.87693        1.00768        0.76029
19 19 19 19 19 19 19 19 19 19 19 19 19 19 19 19 19 19 19 19 19 19 19 19 19 19 19 19 19 19 19 19 19 19 19 19 19 19 19 19 19 19 19 19 19 19 19 19 19 19 19 19
C1(C=CC2(OC(C(N(C(C=1)=2)[O-])=O)O))
InChI=1S/C8H6NO4/c10-7-8(11)13-6-4-2-1-3-5(6)9(7)12/h1-4,8,11H/q-1
