17
metacyc CPD-14966  -630.67005184 -630.67005184 -630.67005184 -630.67005184 -630.67005184 -630.67005184 -630.67005184 -630.67005184 -630.67005184 -630.67005184 -630.67005184 -630.67005184 -630.67005184 -630.67005184 -630.67005184
C          1.18697       -0.11438        0.05590
H          0.62018        0.71267       -0.40271
O          0.58229       -1.06030        0.56139
C          2.67239        0.01274       -0.01700
C          3.16164        1.31079       -0.69657
O          4.25218        1.26298       -1.32322
O          2.34711        2.28280       -0.61594
C          3.36915       -1.00751        0.51872
C          4.81502       -1.17636        0.61703
C          5.46595       -2.22122        1.17981
O          4.81621       -3.31095        1.76785
C          7.05231       -2.26619        1.19831
O          7.64728       -1.14972        1.16052
O          7.56072       -3.42834        1.27331
H          2.78550       -1.81423        0.94681
H          5.42188       -0.37907        0.18423
H          3.87050       -3.21621        1.61056
17 17 17 17 17 17 17 17 17 17 17 17 17 17 17 17 17 17 17 17 17 17 17 17 17 17 17 17 17 17 17 17 17 17 17 17 17 17 17 17 17 17 17 17 17 17
[CH](=O)C(C(=O)[O-])=CC=C(O)C([O-])=O
InChI=1S/C7H6O6/c8-3-4(6(10)11)1-2-5(9)7(12)13/h1-3,9H,(H,10,11)(H,12,13)/p-2/b4-1-,5-2-
