20
metacyc CPD-18273  -572.33571968 -572.33571968 -572.33571968 -572.33571968 -572.33571968 -572.33571968 -572.33571968 -572.33571968 -572.33571968 -572.33571968 -572.33571968 -572.33571968 -572.33571968 -572.33571968 -572.33571968
C          0.99601        0.07541        0.01310
C          2.47272       -0.20157       -0.12179
C          3.14788        0.49985       -1.27384
C          4.59795        0.92212       -1.24068
C          4.98163        1.86444       -0.13761
O          4.20896        2.28314        0.72916
C          6.40408        2.45203       -0.16402
O          7.11352        2.15335       -1.18188
O          6.75490        3.23158        0.78142
O          2.45490        0.78571       -2.26456
C          3.00890       -1.08472        0.73786
C          4.36218       -1.76935        0.79978
O          4.89235       -2.02964       -0.31210
O          4.69548       -2.13977        1.96176
H          0.56196        0.57157       -0.85940
H          0.80075        0.70516        0.88678
H          0.44371       -0.86523        0.13538
H          4.76558        1.47486       -2.17663
H          5.26209        0.06155       -1.27401
H          2.37525       -1.46327        1.54101
20 20 20 20 20 20 20 20 20 20 20 20 20 20 20 20 20 20 20 20 20 20 20 20 20 20 20 20 20 20 20 20 20 20 20 20 20 20 20 20 20 20 20 20 20 20 20 20 20 20 20 20 20 20 20
CC(C(CC(=O)C([O-])=O)=O)=CC([O-])=O
InChI=1S/C8H8O6/c1-4(2-7(11)12)5(9)3-6(10)8(13)14/h2H,3H2,1H3,(H,11,12)(H,13,14)/p-2/b4-2+
