16
metacyc CPD-9727  -310.01017464 -310.01017464 -310.01017464 -310.01017464 -310.01017464 -310.01017464 -310.01017464 -310.01017464 -310.01017464 -310.01017464 -310.01017464 -310.01017464 -310.01017464 -310.01017464 -310.01017464
C          1.02643        1.85348        1.65399
C          0.24990        1.06088        0.59197
C         -1.26172        1.06143        0.65995
C         -1.88451       -0.16697        0.00386
C         -1.55410       -1.46105        0.74257
O         -2.22743       -2.55930        0.12871
O          0.88643        0.49285       -0.29610
O          0.30305        2.47227        2.50104
O          2.29595        1.82790        1.61602
H         -1.60945        1.96646        0.14831
H         -1.59164        1.11351        1.70213
H         -1.57130       -0.25431       -1.04352
H         -2.97430       -0.03892       -0.02248
H         -1.87656       -1.40913        1.78787
H         -0.48175       -1.67472        0.72497
H         -3.14436       -2.28325       -0.03062
16 16 16 16 16 16 16 16 16 16 16 16 16 16 16 16 16 16 16 16 16 16 16 16 16 16 16 16 16 16 16 16 16 16 16 16 16 16 16 16 16 16 16
C(C(CCCO)=O)(=O)[O-]
InChI=1S/C5H8O4/c6-3-1-2-4(7)5(8)9/h6H,1-3H2,(H,8,9)/p-1
