2
metacyc CPD-13584  -135.61205904 -135.61205904 -135.61205904 -135.61205904 -135.61205904 -135.61205904 -135.61205904 -135.61205904 -135.61205904 -135.61205904 -135.61205904 -135.61205904 -135.61205904 -135.61205904 -135.61205904
C          1.11805        0.08435       -0.03048
N          2.23136        0.08435       -0.03048
2
[C-]#N
InChI=1S/CN/c1-2/q-1
