16
metacyc CPD-19230  -317.388089616 -317.388089616 -317.388089616 -317.388089616 -317.388089616 -317.388089616 -317.388089616 -317.388089616 -317.388089616 -317.388089616 -317.388089616 -317.388089616 -317.388089616 -317.388089616 -317.388089616
C          0.95950       -0.13560        0.03231
C          0.20370        0.72259        1.02764
C         -0.80840        0.16970        1.83261
C         -1.49738        0.97694        2.74518
N         -2.55226        0.39788        3.58529
O         -2.80551       -0.80975        3.46982
O         -3.14014        1.15562        4.37536
C         -1.19179        2.34035        2.86946
C         -0.18943        2.89435        2.07555
C          0.50010        2.09102        1.16505
O          1.86491        0.43616       -0.65082
O          0.62588       -1.35847       -0.03890
H         -1.03702       -0.89060        1.72602
H         -1.72056        2.97710        3.57351
H          0.06088        3.94807        2.15872
H          1.28455        2.52449        0.54409
16 16 16 16 16 16 16 16 16 16 16 16 16 16 16 16 16 16 16 16 16 16 16 16 16 16 16 16 16 16 16 16 16 16 16 16 16 16 16 16 16 16 16
C(C1(=CC([N+]([O-])=O)=CC=C1))(=O)[O-]
InChI=1S/C7H5NO4/c9-7(10)5-2-1-3-6(4-5)8(11)12/h1-4H,(H,9,10)/p-1
