18
metacyc CPD-18648  -217.6466592 -217.6466592 -217.6466592 -217.6466592 -217.6466592 -217.6466592 -217.6466592 -217.6466592 -217.6466592 -217.6466592 -217.6466592 -217.6466592 -217.6466592 -217.6466592 -217.6466592
C          0.98808       -0.25632        0.10471
N          0.82012       -0.07901       -1.24751
O          1.57831       -0.94983       -2.06746
C          0.30477        0.77579        0.96911
C         -1.21627        0.72762        0.81503
C         -1.91079        1.74253        1.72395
C         -1.54994        3.21425        1.40137
O         -1.18216        3.44818        0.21132
O         -1.58849        4.00596        2.38937
N         -3.36431        1.61328        1.55746
O          1.66348       -1.18042        0.55832
H          0.55983        0.82534       -1.63495
H          2.03192       -1.50760       -1.39694
H          0.71293        1.75488        0.69487
H          0.58629        0.58949        2.01143
H         -1.56436       -0.28563        1.05690
H         -1.49355        0.89849       -0.23375
H         -1.66024        1.53110        2.76978
18 18 18 18 18 18 18 18 18 18 18 18 18 18 18 18 18 18 18 18 18 18 18 18 18 18 18 18 18 18 18 18 18 18 18 18 18 18 18 18 18 18 18 18 18 18 18 18 18
C(NO)(CCC(C(=O)[O-])[N+])=O
InChI=1S/C5H10N2O4/c6-3(5(9)10)1-2-4(8)7-11/h3,11H,1-2,6H2,(H,7,8)(H,9,10)/t3-/m0/s1
