18
metacyc CPD-668  -902.20813728 -902.20813728 -902.20813728 -902.20813728 -902.20813728 -902.20813728 -902.20813728 -902.20813728 -902.20813728 -902.20813728 -902.20813728 -902.20813728 -902.20813728 -902.20813728 -902.20813728
C         -0.50394       -0.04601        1.32008
C          0.36635       -1.02922        0.48974
O          1.15433       -1.96105        1.26154
C          0.42900       -3.04184        1.90070
C         -0.49577       -3.87954        1.00467
C          0.04608       -4.78898       -0.10355
O          0.66798       -4.23875       -1.06056
O         -0.34536       -6.00083       -0.05754
C          1.37407       -3.96541        2.77117
O          2.63283       -3.81514        2.68200
O          0.76907       -4.73331        3.59554
O          0.04783        1.05495        1.64710
O         -1.73051       -0.35089        1.46429
H          1.09067       -0.42185       -0.06696
H         -0.22518       -1.54663       -0.26990
H         -0.20863       -2.54962        2.64825
H         -1.22902       -3.22575        0.51785
H         -1.09910       -4.51856        1.66655
18 18 18 18 18 18 18 18 18 18 18 18 18 18 18 18 18 18 18 18 18 18 18 18 18 18 18 18 18 18 18 18 18 18 18 18 18 18 18 18 18 18 18 18 18 18 18 18 18
C(COC(CC(=O)[O-])C(=O)[O-])([O-])=O
InChI=1S/C6H8O7/c7-4(8)1-3(6(11)12)13-2-5(9)10/h3H,1-2H2,(H,7,8)(H,9,10)(H,11,12)/p-3
