15
metacyc CPD-14173  -286.291681136 -286.291681136 -286.291681136 -286.291681136 -286.291681136 -286.291681136 -286.291681136 -286.291681136 -286.291681136 -286.291681136 -286.291681136 -286.291681136 -286.291681136 -286.291681136 -286.291681136
C          0.93120       -0.03774       -0.06197
N          0.51000       -1.30920        0.40023
C         -0.77187       -1.58191        0.49936
O         -1.59030       -0.68705        0.17407
O         -0.97183       -2.74698        0.92289
N          2.36406       -0.00197       -0.07497
C          3.04213        1.10051       -0.47574
O          2.55508        2.15382       -0.85864
N          4.38844        0.94600       -0.41957
H          0.57202        0.75123        0.60756
H          0.57202        0.13710       -1.08186
H          1.15527       -2.02762        0.66139
H          2.84575       -0.82649        0.22475
H          4.82412        0.09486       -0.11017
H          4.95080        1.73342       -0.70581
15 15 15 15 15 15 15 15 15 15 15 15 15 15 15 15 15 15 15 15 15 15 15 15 15 15 15 15 15 15 15 15 15 15 15 15 15 15 15 15
C(NC(=O)[O-])NC(=O)N
InChI=1S/C3H7N3O3/c4-2(7)5-1-6-3(8)9/h6H,1H2,(H,8,9)(H3,4,5,7)/p-1
