22
metacyc CPD-15530  -698.94540064 -698.94540064 -698.94540064 -698.94540064 -698.94540064 -698.94540064 -698.94540064 -698.94540064 -698.94540064 -698.94540064 -698.94540064 -698.94540064 -698.94540064 -698.94540064 -698.94540064
C          0.73178       -0.00485       -0.09758
H          0.29013       -0.43079        0.82391
O         -0.01331        0.38176       -1.00012
C          2.25818       -0.02308       -0.14969
O          2.73846        0.52340       -1.37650
C          2.77607        0.69183        1.12389
O          2.28045       -0.06210        2.24087
C          4.31996        0.87910        1.11660
O          4.69033        1.65545       -0.05340
C          4.88750        1.60542        2.34031
O          4.33246        2.94908        2.40406
C          4.65243        0.86955        3.67622
O          4.47195       -0.37652        3.59161
O          4.58488        1.64556        4.67570
H          2.55177       -1.07999       -0.12364
H          3.44029        1.17118       -1.14772
H          2.31029        1.68430        1.16552
H          3.04388       -0.42912        2.76200
H          4.80057       -0.10057        1.01687
H          4.88498        2.55241        0.29609
H          5.96880        1.74175        2.22240
H          4.18700        3.06103        3.37768
22 22 22 22 22 22 22 22 22 22 22 22 22 22 22 22 22 22 22 22 22 22 22 22 22 22 22 22 22 22 22 22 22 22 22 22 22 22 22 22 22 22 22 22 22 22 22 22 22 22 22 22 22 22 22 22 22 22 22 22 22
[CH](=O)C(O)C(O)C(O)C(O)C(=O)[O-]
InChI=1S/C6H10O7/c7-1-2(8)3(9)4(10)5(11)6(12)13/h1-5,8-11H,(H,12,13)/p-1/t2-,3+,4-,5-/m0/s1
