19
metacyc CPD-12247  -204.211308016 -204.211308016 -204.211308016 -204.211308016 -204.211308016 -204.211308016 -204.211308016 -204.211308016 -204.211308016 -204.211308016 -204.211308016 -204.211308016 -204.211308016 -204.211308016 -204.211308016
C          4.85793       -2.30292        1.26275
C          4.45963       -0.83358        1.23709
N          5.00936       -0.23897        0.01324
C          2.95556       -0.57095        1.25205
O          2.27383       -1.60709        1.80518
C          0.82453       -1.50900        1.78531
C          0.31309       -1.90995        0.40954
C          0.19010       -2.49185        2.79779
O          0.88633       -3.49697        3.12846
O         -0.98012       -2.18515        3.17679
O          2.44051        0.46951        0.85083
H          5.93068       -2.42596        1.06933
H          4.30941       -2.88904        0.51700
H          4.65583       -2.73986        2.24641
H          4.89298       -0.32208        2.10272
H          0.51776       -0.48958        2.04969
H          0.49494       -2.97537        0.21664
H          0.83381       -1.36069       -0.38277
H         -0.75880       -1.72463        0.31149
19 19 19 19 19 19 19 19 19 19 19 19 19 19 19 19 19 19 19 19 19 19 19 19 19 19 19 19 19 19 19 19 19 19 19 19 19 19 19 19 19 19 19 19 19 19 19 19 19 19 19 19
CC([N+])C(OC(C)C(=O)[O-])=O
InChI=1S/C6H11NO4/c1-3(7)6(10)11-4(2)5(8)9/h3-4H,7H2,1-2H3,(H,8,9)/t3-,4-/m1/s1
