19
metacyc CPD-579  -250.174276008 -250.174276008 -250.174276008 -250.174276008 -250.174276008 -250.174276008 -250.174276008 -250.174276008 -250.174276008 -250.174276008 -250.174276008 -250.174276008 -250.174276008 -250.174276008 -250.174276008
C          5.54555       -0.96584       -1.58226
N          4.49144       -0.47854       -0.72895
C          3.14336       -0.59042       -0.92051
C          2.63833       -1.30325       -2.16028
C          1.11383       -1.31986       -2.18926
C          0.37359       -1.98027       -3.33776
C          1.06785       -2.66664       -4.52485
O          0.33219       -3.18506       -5.42361
O          2.34061       -2.66212       -4.51521
O         -0.86277       -1.98086       -3.34378
O          2.40318       -0.10158       -0.06745
H          6.50082       -0.70082       -1.12130
H          5.46856       -0.49696       -2.56556
H          5.47040       -2.05128       -1.67594
H          4.73416        0.01096        0.12291
H          3.02799       -2.32693       -2.14464
H          3.02791       -0.77531       -3.03742
H          0.75092       -0.28427       -2.15663
H          0.75068       -1.81240       -1.27769
19 19 19 19 19 19 19 19 19 19 19 19 19 19 19 19 19 19 19 19 19 19 19 19 19 19 19 19 19 19 19 19 19 19 19 19 19 19 19 19 19 19 19 19 19 19 19 19 19 19 19 19
CNC(CCC(C([O-])=O)=O)=O
InChI=1S/C6H9NO4/c1-7-5(9)3-2-4(8)6(10)11/h2-3H2,1H3,(H,7,9)(H,10,11)/p-1
