23
metacyc CPD-7022  -305.984145744 -305.984145744 -305.984145744 -305.984145744 -305.984145744 -305.984145744 -305.984145744 -305.984145744 -305.984145744 -305.984145744 -305.984145744 -305.984145744 -305.984145744 -305.984145744 -305.984145744
C          3.33675        0.49624        1.22906
C          2.64417        0.84247        2.58414
O          2.76696        2.27183        2.80703
C          1.17696        0.42096        2.46333
C          0.34746        0.62314        3.71979
C         -0.25102       -0.46930        4.36934
C         -1.04951       -0.24887        5.49017
C         -1.24798        1.04171        5.97498
C         -0.66420        2.13050        5.35244
C          0.12256        1.91836        4.22119
O         -2.03596        1.24040        7.07552
O         -1.67259       -1.27741        6.14397
O          3.80175        1.51982        0.63272
O          3.35584       -0.71886        0.89513
H          3.15483        0.32671        3.40350
H          3.24878        2.56246        1.99193
H          1.11974       -0.63690        2.17488
H          0.68729        0.98154        1.65616
H         -0.08930       -1.47200        3.98656
H         -0.81395        3.13364        5.73447
H          0.57271        2.77581        3.72256
H         -2.32145        0.34050        7.31993
H         -1.45469       -2.09351        5.66217
23 23 23 23 23 23 23 23 23 23 23 23 23 23 23 23 23 23 23 23 23 23 23 23 23 23 23 23 23 23 23 23 23 23 23 23 23 23 23 23 23 23 23 23 23 23 23 23 23 23 23 23 23 23 23 23 23 23 23 23 23 23 23 23
C(C(O)CC1(C=C(C(=CC=1)O)O))(=O)[O-]
InChI=1S/C9H10O5/c10-6-2-1-5(3-7(6)11)4-8(12)9(13)14/h1-3,8,10-12H,4H2,(H,13,14)/p-1/t8-/m0/s1
