20
metacyc CPD-15868  -321.4516992 -321.4516992 -321.4516992 -321.4516992 -321.4516992 -321.4516992 -321.4516992 -321.4516992 -321.4516992 -321.4516992 -321.4516992 -321.4516992 -321.4516992 -321.4516992 -321.4516992
C          3.00318        0.06289       -1.42590
H          2.99926        1.04804       -1.91927
O          3.32033       -0.95705       -2.04288
C          2.53575        0.04904        0.01911
O          1.10691        0.05570        0.01572
C          3.04937       -1.19736        0.76657
O          2.52720       -2.38806        0.15541
C          4.58100       -1.22507        0.86995
O          5.01676       -0.05221        1.57191
C          5.10050       -2.47981        1.57998
O          6.52420       -2.38540        1.69522
H          2.88239        0.96995        0.49816
H          0.82937       -0.87754       -0.08278
H          2.62554       -1.17034        1.77853
H          2.79811       -2.37055       -0.78913
H          5.04816       -1.18885       -0.11962
H          5.69772       -0.34467        2.21165
H          4.85020       -3.39793        1.04075
H          4.70504       -2.54386        2.59793
H          6.89361       -2.43028        0.79393
20 20 20 20 20 20 20 20 20 20 20 20 20 20 20 20 20 20 20 20 20 20 20 20 20 20 20 20 20 20 20 20 20 20 20 20 20 20 20 20 20 20 20 20 20 20 20 20 20 20 20 20 20 20 20
[CH](=O)C(O)C(O)C(O)CO
InChI=1S/C5H10O5/c6-1-3(8)5(10)4(9)2-7/h1,3-5,7-10H,2H2/t3-,4-,5-/m0/s1
