24
metacyc CPD-15758  -397.59112704 -397.59112704 -397.59112704 -397.59112704 -397.59112704 -397.59112704 -397.59112704 -397.59112704 -397.59112704 -397.59112704 -397.59112704 -397.59112704 -397.59112704 -397.59112704 -397.59112704
C          0.98788       -0.00118        0.10580
O          0.63777        1.32193        0.49001
C          2.50632       -0.13060       -0.09015
O          2.89772       -1.46540       -0.44710
C          2.53288       -1.87304       -1.76455
O          3.06846       -3.17082       -1.98246
C          3.05523       -0.91540       -2.85536
O          4.49553       -1.04213       -2.94335
C          2.65326        0.52485       -2.51651
O          3.23705        1.43886       -3.44719
C          3.09804        0.88007       -1.08876
O          4.54217        0.80287       -1.04832
H          0.41675       -0.27503       -0.78678
H          0.66457       -0.68583        0.89741
H          0.29494        1.79229       -0.28989
H          2.97617        0.06295        0.88232
H          1.44387       -1.96069       -1.82134
H          3.97758       -3.01021       -2.30538
H          2.68007       -1.21008       -3.83998
H          4.86027       -0.57182       -2.16088
H          1.56742        0.63339       -2.60781
H          4.20409        1.30631       -3.37589
H          2.83089        1.91345       -0.84469
H          4.80878        0.85910       -0.11000
24 24 24 24 24 24 24 24 24 24 24 24 24 24 24 24 24 24 24 24 24 24 24 24 24 24 24 24 24 24 24 24 24 24 24 24 24 24 24 24 24 24 24 24 24 24 24 24 24 24 24 24 24 24 24 24 24 24 24 24 24 24 24 24 24 24 24
C(O)C1(OC(O)C(O)C(O)C(O)1)
InChI=1S/C6H12O6/c7-1-2-3(8)4(9)5(10)6(11)12-2/h2-11H,1H2/t2-,3+,4-,5+,6+/m1/s1
