16
metacyc CPD-14345  -247.832060256 -247.832060256 -247.832060256 -247.832060256 -247.832060256 -247.832060256 -247.832060256 -247.832060256 -247.832060256 -247.832060256 -247.832060256 -247.832060256 -247.832060256 -247.832060256 -247.832060256
C          0.90880       -0.02909        0.11315
O          0.23623       -1.02160       -0.29787
O          0.42331        1.04291        0.59705
C          2.41853       -0.07785       -0.01629
C          3.12342        1.14562       -0.08259
C          4.51050        1.18618       -0.22759
C          5.21767       -0.01420       -0.30734
N          6.67403        0.01041       -0.47523
O          7.23237        1.11621       -0.54599
O          7.27069       -1.07466       -0.53968
C          4.55081       -1.24139       -0.22719
C          3.15741       -1.27137       -0.07731
N          2.55550       -2.56239        0.03981
H          2.56094        2.07883       -0.02185
H          5.00702        2.15156       -0.27729
H          5.09722       -2.18062       -0.27622
16 16 16 16 16 16 16 16 16 16 16 16 16 16 16 16 16 16 16 16 16 16 16 16 16 16 16 16 16 16 16 16 16 16 16 16 16 16 16 16 16 16 16
C(=O)([O-])C1(=CC=C([N+](=O)[O-])C=C([N+])1)
InChI=1S/C7H6N2O4/c8-6-3-4(9(12)13)1-2-5(6)7(10)11/h1-3H,8H2,(H,10,11)
