17
metacyc CPD-14873  -113.617934192 -113.617934192 -113.617934192 -113.617934192 -113.617934192 -113.617934192 -113.617934192 -113.617934192 -113.617934192 -113.617934192 -113.617934192 -113.617934192 -113.617934192 -113.617934192 -113.617934192
C          1.03978        0.15390        0.09010
O          0.45284       -0.97263        0.13017
O          0.47662        1.29169        0.16893
C          2.54839        0.14330       -0.07501
C          3.27044        1.35184       -0.12052
C          4.65207        1.35263       -0.31300
N          5.38606        2.56334       -0.36732
C          5.32335        0.12587       -0.38853
O          6.69152        0.11790       -0.46540
C          4.64178       -1.08072       -0.34425
C          3.25403       -1.06889       -0.19233
H          2.71953        2.28477       -0.02263
H          4.74340        3.35451       -0.37678
H          5.95475        2.57603       -1.21150
H          6.92948        1.01531       -0.16274
H          5.17725       -2.02078       -0.40606
H          2.70266       -2.00723       -0.14902
17 17 17 17 17 17 17 17 17 17 17 17 17 17 17 17 17 17 17 17 17 17 17 17 17 17 17 17 17 17 17 17 17 17 17 17 17 17 17 17 17 17 17 17 17 17
C(=O)([O-])C1(C=C(N)C(O)=CC=1)
InChI=1S/C7H7NO3/c8-5-3-4(7(10)11)1-2-6(5)9/h1-3,9H,8H2,(H,10,11)/p-1
