29
metacyc CPD-15695  -93.44206696 -93.44206696 -93.44206696 -93.44206696 -93.44206696 -93.44206696 -93.44206696 -93.44206696 -93.44206696 -93.44206696 -93.44206696 -93.44206696 -93.44206696 -93.44206696 -93.44206696
C          0.86173        0.14645        0.27205
C          2.37860        0.08127        0.07544
C          2.89794       -1.31540       -0.30491
O          2.41046       -2.30586        0.60085
C          2.55366       -1.65117       -1.77005
C          3.02606       -0.53360       -2.72381
C          2.45747        0.81298       -2.21027
O          2.91943        1.89998       -2.99304
O          2.83086        1.06670       -0.86122
N          4.49925       -0.49668       -2.82057
C          5.32488       -1.18014       -3.66226
C          4.75464       -2.02837       -4.76708
O          6.53823       -1.06655       -3.50628
O          3.09234       -2.92670       -2.13400
H          0.54306       -0.49393        1.10033
H          0.31209       -0.16652       -0.62077
H          0.55130        1.17378        0.48924
H          2.82302        0.35033        1.04150
H          3.99009       -1.32229       -0.19808
H          1.66837       -2.77788        0.18334
H          1.46785       -1.76313       -1.86820
H          2.64822       -0.71258       -3.73536
H          1.36662        0.81443       -2.29795
H          3.86249        1.98613       -2.77394
H          5.00815        0.01898       -2.10890
H          3.71382       -2.30885       -4.60753
H          5.33195       -2.95712       -4.82517
H          4.83866       -1.49109       -5.71372
H          4.02607       -2.94718       -1.85077
29 29 29 29 29 29 29 29 29 29 29 29 29 29 29 29 29 29 29 29 29 29 29 29 29 29 29 29 29 29 29 29 29 29 29 29 29 29 29 29 29 29 29 29 29 29 29 29 29 29 29 29 29 29 29 29 29 29 29 29 29 29 29 29 29 29 29 29 29 29 29 29 29 29 29 29 29 29 29 29 29 29
CC1(C(O)C(C(C(O)O1)NC(C)=O)O)
InChI=1S/C8H15NO5/c1-3-6(11)7(12)5(8(13)14-3)9-4(2)10/h3,5-8,11-13H,1-2H3,(H,9,10)/t3-,5-,6-,7-,8+/m1/s1
