19
metacyc CPD-620  -502.36986752 -502.36986752 -502.36986752 -502.36986752 -502.36986752 -502.36986752 -502.36986752 -502.36986752 -502.36986752 -502.36986752 -502.36986752 -502.36986752 -502.36986752 -502.36986752 -502.36986752
C          2.82169        0.22928       -1.39666
C          2.44748       -0.27694       -0.00808
C          3.00938        0.56614        1.15781
C          2.63701        2.06341        1.12203
C          1.18585        2.55065        1.12288
O          0.33038        1.82519        0.54630
O          1.02696        3.73085        1.56860
C          2.64619       -0.06861        2.57384
O          3.00616        0.59976        3.59542
O          2.11702       -1.23088        2.56659
O          4.47610        0.48372        0.98998
H          2.44205       -0.46257       -2.15603
H          3.90853        0.29607       -1.52298
H          2.38624        1.21264       -1.59608
H          2.84750       -1.29679        0.07367
H          1.35982       -0.37253        0.06576
H          3.08572        2.52349        0.23003
H          3.14873        2.56489        1.95641
H          4.74720        1.33887        0.62989
19 19 19 19 19 19 19 19 19 19 19 19 19 19 19 19 19 19 19 19 19 19 19 19 19 19 19 19 19 19 19 19 19 19 19 19 19 19 19 19 19 19 19 19 19 19 19 19 19 19 19 19
CCC(CC([O-])=O)(C([O-])=O)O
InChI=1S/C6H10O5/c1-2-6(11,5(9)10)3-4(7)8/h11H,2-3H2,1H3,(H,7,8)(H,9,10)/p-2/t6-/m1/s1
