23
metacyc CPD-20949  -926.794702 -926.794702 -926.794702 -926.794702 -926.794702 -926.794702 -926.794702 -926.794702 -926.794702 -926.794702 -926.794702 -926.794702 -926.794702 -926.794702 -926.794702
C          0.93130        0.23430        0.26154
O          0.48177       -0.54673        1.15405
O          0.32591        1.20013       -0.29993
C          2.45701        0.13430       -0.03427
H          2.93779        0.35529        0.92956
O          2.93423       -1.19786       -0.37078
C          2.58951       -1.65546       -1.69058
O          1.16938       -1.80898       -1.79228
C          3.27985       -3.09828       -1.92471
O          4.48671       -3.10323       -2.31800
O          2.51222       -4.09043       -1.70736
C          3.07553       -0.69690       -2.77080
C          2.61968        0.72938       -2.48668
C          2.97664        1.14160       -1.05030
O          4.43408        1.17940       -0.96509
O          3.31188        1.61385       -3.39958
H          1.03784       -2.68841       -1.37620
H          2.70885       -1.00112       -3.75988
H          4.17070       -0.70368       -2.84486
H          1.54719        0.83429       -2.67586
H          2.64018        2.16065       -0.84889
H          4.68198        0.24703       -0.78256
H          4.17629        1.75092       -2.96105
23 23 23 23 23 23 23 23 23 23 23 23 23 23 23 23 23 23 23 23 23 23 23 23 23 23 23 23 23 23 23 23 23 23 23 23 23 23 23 23 23 23 23 23 23 23 23 23 23 23 23 23 23 23 23 23 23 23 23 23 23 23 23 23
C([O-])(=O)[CH]1(OC(O)(C([O-])=O)CC(C1O)O)
InChI=1S/C7H10O8/c8-2-1-7(14,6(12)13)15-4(3(2)9)5(10)11/h2-4,8-9,14H,1H2,(H,10,11)(H,12,13)/p-2/t2-,3-,4+,7+/m1/s1
