23
metacyc CPD-13829  -246.00480704 -246.00480704 -246.00480704 -246.00480704 -246.00480704 -246.00480704 -246.00480704 -246.00480704 -246.00480704 -246.00480704 -246.00480704 -246.00480704 -246.00480704 -246.00480704 -246.00480704
C          0.87481        0.25448        0.20867
C          2.38541        0.06748        0.04267
C          2.79344       -1.38916       -0.23363
C          2.49738       -1.77878       -1.68860
C          3.05097       -0.74536       -2.66744
C          2.54371        0.65489       -2.28767
O          2.92786        0.95806       -0.94678
O          3.12414        1.62728       -3.14567
O          4.49627       -0.77016       -2.60843
O          3.07142       -3.07037       -1.94034
O          2.12464       -2.28997        0.65309
H          0.50174       -0.30725        1.06983
H          0.32107       -0.06960       -0.68024
H          0.63737        1.31043        0.35429
H          2.83794        0.36430        0.99834
H          3.86822       -1.50493       -0.04793
H          1.41653       -1.89226       -1.82882
H          2.78981       -0.99883       -3.69956
H          1.45825        0.73268       -2.39999
H          4.00535        1.29520       -3.39108
H          4.76111       -0.18691       -1.86855
H          3.99698       -2.90692       -2.21626
H          2.12897       -3.16309        0.21263
23 23 23 23 23 23 23 23 23 23 23 23 23 23 23 23 23 23 23 23 23 23 23 23 23 23 23 23 23 23 23 23 23 23 23 23 23 23 23 23 23 23 23 23 23 23 23 23 23 23 23 23 23 23 23 23 23 23 23 23 23 23 23 23
CC1(C(C(C(C(O1)O)O)O)O)
InChI=1S/C6H12O5/c1-2-3(7)4(8)5(9)6(10)11-2/h2-10H,1H3/t2-,3-,4+,5+,6+/m1/s1
