18
metacyc CPD-13172  -220.34709648 -220.34709648 -220.34709648 -220.34709648 -220.34709648 -220.34709648 -220.34709648 -220.34709648 -220.34709648 -220.34709648 -220.34709648 -220.34709648 -220.34709648 -220.34709648 -220.34709648
C          0.91620       -0.17311       -0.01667
O          0.26911       -1.13489       -0.54832
C          0.12909        0.54223        1.13413
O         -1.16527       -0.09139        1.29516
C          0.83737        0.35247        2.43942
C          1.30443        1.34172        3.20735
C          1.18326        2.78094        2.85163
C          0.51970        3.11889        1.52248
C         -0.08456        1.99382        0.70426
O         -0.77558        2.30475       -0.27699
O          2.08524        0.24168       -0.25706
H         -1.20906       -0.64572        0.47785
H          0.98292       -0.68031        2.74681
H          1.81730        1.09418        4.13237
H          2.18736        3.22339        2.86200
H          0.63545        3.28332        3.65909
H          1.23864        3.64222        0.88096
H         -0.29688        3.82569        1.72434
18 18 18 18 18 18 18 18 18 18 18 18 18 18 18 18 18 18 18 18 18 18 18 18 18 18 18 18 18 18 18 18 18 18 18 18 18 18 18 18 18 18 18 18 18 18 18 18 18
C(=O)(C1(O)(C=CCCC(=O)1))[O-]
InChI=1S/C7H8O4/c8-5-3-1-2-4-7(5,11)6(9)10/h2,4,11H,1,3H2,(H,9,10)/p-1
