11
metacyc CPD-9326  -340.44195472 -340.44195472 -340.44195472 -340.44195472 -340.44195472 -340.44195472 -340.44195472 -340.44195472 -340.44195472 -340.44195472 -340.44195472 -340.44195472 -340.44195472 -340.44195472 -340.44195472
C          0.92095       -0.01393       -0.04447
O          0.38172        1.10452        0.17787
O          0.37265       -1.14211       -0.21197
C          2.43097       -0.01529       -0.15970
C          2.85752       -0.13286       -1.59546
O          3.86588        0.41530       -2.04206
N          2.14845       -0.99516       -2.37786
H          2.85565       -0.85090        0.40578
H          2.83514        0.91624        0.25104
H          1.25135       -1.34019       -2.02655
H          2.34056       -1.02077       -3.36473
11 11 11 11 11 11 11 11 11 11 11 11 11 11 11 11 11 11 11 11 11 11 11 11 11 11 11 11
C(=O)([O-])CC(=O)N
InChI=1S/C3H5NO3/c4-2(5)1-3(6)7/h1H2,(H2,4,5)(H,6,7)/p-1
