20
metacyc CPD-16522  -784.14113832 -784.14113832 -784.14113832 -784.14113832 -784.14113832 -784.14113832 -784.14113832 -784.14113832 -784.14113832 -784.14113832 -784.14113832 -784.14113832 -784.14113832 -784.14113832 -784.14113832
C          1.28499       -0.17401       -0.74575
O          1.42642       -1.00757       -1.69065
O          0.29528        0.53542       -0.41412
C          2.55661        0.01181        0.11691
O          3.53961       -0.99362       -0.25586
C          3.11304        1.39601       -0.19096
C          2.19098        2.59738        0.00628
O          1.37295        2.47008        1.17361
C          3.18985        3.72728        0.18632
O          3.61158        4.27730       -1.06336
C          4.32124        3.01272        0.90334
O          5.25004        3.54915        1.49304
O          4.23512        1.66794        0.68584
H          2.33261       -0.13020        1.17772
H          3.09082       -1.46133       -1.00304
H          3.52345        1.40197       -1.20984
H          1.53512        2.77288       -0.85236
H          0.67725        1.81570        0.90732
H          2.79629        4.52761        0.81885
H          4.11974        3.59323       -1.53604
20 20 20 20 20 20 20 20 20 20 20 20 20 20 20 20 20 20 20 20 20 20 20 20 20 20 20 20 20 20 20 20 20 20 20 20 20 20 20 20 20 20 20 20 20 20 20 20 20 20 20 20 20 20 20
C(=O)([O-])C(O)C1(C(O)C(O)C(=O)O1)
InChI=1S/C6H8O7/c7-1-2(8)6(12)13-4(1)3(9)5(10)11/h1-4,7-9H,(H,10,11)/p-1/t1-,2-,3?,4-/m1/s1
