18
metacyc CPD-8782  -162.69157648 -162.69157648 -162.69157648 -162.69157648 -162.69157648 -162.69157648 -162.69157648 -162.69157648 -162.69157648 -162.69157648 -162.69157648 -162.69157648 -162.69157648 -162.69157648 -162.69157648
C          0.97350       -0.15201        0.08710
C          2.47429       -0.06285        0.04063
O          3.04063        0.91219       -0.44893
C          3.22748       -1.21218        0.61612
C          4.56811       -1.20301        0.61069
C          5.36248       -2.28624        1.15294
C          6.70673       -2.36935        1.19340
O          7.55591       -1.38317        0.69804
C          7.38244       -3.65627        1.83768
O          6.57312       -4.53060        2.27565
O          8.64617       -3.66809        1.84390
H          0.54453        0.74831       -0.36384
H          0.63476       -0.21524        1.12410
H          0.63284       -1.02054       -0.48189
H          2.65584       -2.03466        1.02862
H          5.08194       -0.34941        0.18261
H          4.80349       -3.12431        1.57371
H          7.02626       -0.66325        0.33673
18 18 18 18 18 18 18 18 18 18 18 18 18 18 18 18 18 18 18 18 18 18 18 18 18 18 18 18 18 18 18 18 18 18 18 18 18 18 18 18 18 18 18 18 18 18 18 18 18
CC(=O)C=CC=C(O)C([O-])=O
InChI=1S/C7H8O4/c1-5(8)3-2-4-6(9)7(10)11/h2-4,9H,1H3,(H,10,11)/p-1/b3-2+,6-4-
