15
metacyc CPD-13364  -587.40280576 -587.40280576 -587.40280576 -587.40280576 -587.40280576 -587.40280576 -587.40280576 -587.40280576 -587.40280576 -587.40280576 -587.40280576 -587.40280576 -587.40280576 -587.40280576 -587.40280576
C          0.91648       -0.34293       -0.07881
O          0.19259       -0.19814        0.94660
O          0.55158       -0.67176       -1.25071
C          2.41925       -0.12009        0.08219
C          2.93258        0.39854        1.43208
N          2.64486       -0.54332        2.57692
O          3.32463       -1.81257        2.29593
C          4.47676        0.67156        1.32899
O          5.20134       -0.37654        1.21303
O          4.84836        1.88205        1.38086
H          2.71521        0.59850       -0.69577
H          2.91714       -1.06298       -0.18169
H          2.43024        1.34427        1.66952
H          1.65376       -0.79308        2.42730
H          4.16107       -1.52671        1.84155
15 15 15 15 15 15 15 15 15 15 15 15 15 15 15 15 15 15 15 15 15 15 15 15 15 15 15 15 15 15 15 15 15 15 15 15 15 15 15 15
C(=O)([O-])CC(NO)C(=O)[O-]
InChI=1S/C4H7NO5/c6-3(7)1-2(5-10)4(8)9/h2,5,10H,1H2,(H,6,7)(H,8,9)/p-2/t2-/m0/s1
