17
metacyc CPD-16724  -118.211719336 -118.211719336 -118.211719336 -118.211719336 -118.211719336 -118.211719336 -118.211719336 -118.211719336 -118.211719336 -118.211719336 -118.211719336 -118.211719336 -118.211719336 -118.211719336 -118.211719336
C          0.94681        0.03664        0.17472
O          0.31537       -1.13522       -0.32824
C          2.42542       -0.02996       -0.03422
C          3.11444       -1.05705       -0.58788
C          4.61325       -1.03773       -0.69358
O          5.25865       -1.84802       -1.33284
C          5.20711        0.00351        0.16578
O          5.78699        1.24775       -0.09484
C          4.42573        1.34716       -0.41435
C          3.17218        1.22252        0.35616
O          2.77542        2.04506        1.16165
H          0.69465        0.14524        1.23445
H          0.53067        0.89114       -0.36776
H          0.31674       -1.79455        0.38632
H          2.63395       -1.95217       -0.96590
H          5.18507       -0.24522        1.22181
H          4.25212        1.47595       -1.47917
17 17 17 17 17 17 17 17 17 17 17 17 17 17 17 17 17 17 17 17 17 17 17 17 17 17 17 17 17 17 17 17 17 17 17 17 17 17 17 17 17 17 17 17 17 17
C(O)C1(=CC(=O)C2(OC(C(=O)1)2))
InChI=1S/C7H6O4/c8-2-3-1-4(9)6-7(11-6)5(3)10/h1,6-8H,2H2/t6-,7+/m1/s1
