20
metacyc CPD-1943  -640.07467968 -640.07467968 -640.07467968 -640.07467968 -640.07467968 -640.07467968 -640.07467968 -640.07467968 -640.07467968 -640.07467968 -640.07467968 -640.07467968 -640.07467968 -640.07467968 -640.07467968
C          0.80767        0.13531       -0.19465
O          0.29313        1.29479       -0.23448
O          0.20679       -0.98134       -0.23738
C          2.37102        0.07350       -0.10448
C          3.10198        1.32351       -0.07802
C          4.44092        1.37147       -0.00119
C          5.32435        0.14071        0.06959
C          6.24998        0.31288        1.34138
O          7.35489        0.90286        1.08530
O          5.84901       -0.18298        2.43499
O          6.19930        0.24814       -1.10521
C          4.53934       -1.21082        0.00760
O          4.81679       -2.13394        1.07123
C          3.03802       -1.09480       -0.06257
H          2.52373        2.24263       -0.12142
H          4.94128        2.33414        0.01965
H          7.02216        0.60950       -0.69428
H          4.84444       -1.73545       -0.90700
H          4.98720       -1.56436        1.86190
H          2.47898       -2.02600       -0.08888
20 20 20 20 20 20 20 20 20 20 20 20 20 20 20 20 20 20 20 20 20 20 20 20 20 20 20 20 20 20 20 20 20 20 20 20 20 20 20 20 20 20 20 20 20 20 20 20 20 20 20 20 20 20 20
C([O-])(=O)C1(C=CC(C(=O)[O-])(O)C(O)C=1)
InChI=1S/C8H8O6/c9-5-3-4(6(10)11)1-2-8(5,14)7(12)13/h1-3,5,9,14H,(H,10,11)(H,12,13)/p-2/t5-,8+/m0/s1
