24
metacyc CPD-14807  -652.661114 -652.661114 -652.661114 -652.661114 -652.661114 -652.661114 -652.661114 -652.661114 -652.661114 -652.661114 -652.661114 -652.661114 -652.661114 -652.661114 -652.661114
C          0.80972        0.09588        0.09436
O          0.29122        0.31653       -1.21424
C          2.34891        0.06261        0.16299
O          2.71155       -0.10144        1.53896
C          2.93605       -1.03864       -0.76333
O          2.54275       -0.74681       -2.11589
C          4.47325       -1.19621       -0.60958
O          4.74823       -1.54594        0.76055
C          5.02896       -2.25087       -1.58115
O          4.72275       -1.88650       -2.95779
C          6.56895       -2.33558       -1.41464
O          6.97740       -2.47051       -0.22633
O          7.19931       -2.24474       -2.50884
H          0.39474       -0.84305        0.47836
H          0.42528        0.89027        0.74339
H          0.91601       -0.12401       -1.83373
H          2.72658        1.03543       -0.17602
H          3.57769       -0.56997        1.54944
H          2.47377       -1.99462       -0.48538
H          3.22656       -1.16059       -2.69707
H          4.94965       -0.22910       -0.81528
H          5.67807       -1.90361        0.75451
H          4.60260       -3.23949       -1.38996
H          5.62301       -1.92840       -3.37755
24 24 24 24 24 24 24 24 24 24 24 24 24 24 24 24 24 24 24 24 24 24 24 24 24 24 24 24 24 24 24 24 24 24 24 24 24 24 24 24 24 24 24 24 24 24 24 24 24 24 24 24 24 24 24 24 24 24 24 24 24 24 24 24 24 24 24
C(O)C(O)C(O)C(O)C(O)C(=O)[O-]
InChI=1S/C6H12O7/c7-1-2(8)3(9)4(10)5(11)6(12)13/h2-5,7-11H,1H2,(H,12,13)/p-1/t2-,3+,4-,5+/m1/s1
