21
metacyc CPD-205  -236.969387912 -236.969387912 -236.969387912 -236.969387912 -236.969387912 -236.969387912 -236.969387912 -236.969387912 -236.969387912 -236.969387912 -236.969387912 -236.969387912 -236.969387912 -236.969387912 -236.969387912
C          2.61930       -2.74741       -1.49553
O          2.78509       -2.76387       -0.24331
O          2.61284       -3.72146       -2.30571
C          2.31091       -1.38616       -2.12847
C          2.92617       -0.15476       -1.46691
C          4.45461       -0.06822       -1.55133
C          5.04755       -0.02749       -2.96550
C          4.59374        1.15450       -3.82040
C          5.04673        2.54958       -3.37699
O          6.17278        2.62419       -2.80927
O          4.25426        3.48721       -3.68931
H          1.21857       -1.28082       -2.08702
H          2.57106       -1.40902       -3.19283
H          2.64119       -0.13130       -0.40682
H          2.48480        0.74455       -1.91269
H          4.89057       -0.92390       -1.02094
H          4.77982        0.82371       -1.00355
H          4.80249       -0.95824       -3.49020
H          6.14079       -0.01466       -2.87815
H          3.50387        1.14061       -3.93225
H          5.00094        1.01697       -4.83225
21 21 21 21 21 21 21 21 21 21 21 21 21 21 21 21 21 21 21 21 21 21 21 21 21 21 21 21 21 21 21 21 21 21 21 21 21 21 21 21 21 21 21 21 21 21 21 21 21 21 21 21 21 21 21 21 21 21
C([O-])(=O)CCCCCC([O-])=O
InChI=1S/C7H12O4/c8-6(9)4-2-1-3-5-7(10)11/h1-5H2,(H,8,9)(H,10,11)/p-2
