19
metacyc CPD-14427  -166.118515152 -166.118515152 -166.118515152 -166.118515152 -166.118515152 -166.118515152 -166.118515152 -166.118515152 -166.118515152 -166.118515152 -166.118515152 -166.118515152 -166.118515152 -166.118515152 -166.118515152
C          2.42683       -0.72887        0.06076
C          2.36923        0.74411        0.03315
C          1.21566        1.41874        0.01627
C         -0.03959        0.68567        0.02030
C         -1.27606        1.34205       -0.03455
C         -2.46841        0.60761       -0.03396
C         -2.41464       -0.78194        0.03029
C         -1.18980       -1.44285        0.09216
C         -0.00932       -0.70851        0.07886
O          1.21711       -1.40179        0.11260
O         -1.16685       -2.80741        0.16157
O         -3.54927       -1.54609        0.03102
O          3.50762       -1.30680        0.04366
H          3.32732        1.24960        0.02640
H          1.20014        2.50192       -0.00146
H         -1.32264        2.42791       -0.08297
H         -3.41660        1.13399       -0.08252
H         -2.10619       -3.07661        0.16746
H         -4.31795       -0.95696       -0.06135
19 19 19 19 19 19 19 19 19 19 19 19 19 19 19 19 19 19 19 19 19 19 19 19 19 19 19 19 19 19 19 19 19 19 19 19 19 19 19 19 19 19 19 19 19 19 19 19 19 19 19 19
C2(C=CC1(=CC=C(C(=C1O2)O)O))(=O)
InChI=1S/C9H6O4/c10-6-3-1-5-2-4-7(11)13-9(5)8(6)12/h1-4,10,12H
