21
metacyc CPD-15127  -539.78612432 -539.78612432 -539.78612432 -539.78612432 -539.78612432 -539.78612432 -539.78612432 -539.78612432 -539.78612432 -539.78612432 -539.78612432 -539.78612432 -539.78612432 -539.78612432 -539.78612432
C          2.89782        1.46871       -0.59171
C          2.48328        1.84483       -2.00619
O          1.53708        1.14240       -2.47748
O          3.14513        2.76871       -2.54333
C          2.51009        0.04588       -0.18437
O          1.07819       -0.08438       -0.16701
C          3.12186       -1.11373       -1.02083
O          2.70638       -1.13949       -2.39257
C          4.65503       -1.13069       -0.95759
O          5.11305       -1.24799        0.39099
C          5.17360       -2.29759       -1.78393
H          4.98999       -2.23285       -2.87093
O          5.77067       -3.26065       -1.29658
H          2.39998        2.18378        0.07465
H          3.97794        1.61386       -0.48117
H          2.82266       -0.09056        0.85794
H          0.79059        0.27637       -1.04137
H          2.73976       -2.04836       -0.59007
H          2.08981       -0.37809       -2.54982
H          5.08693       -0.22385       -1.39275
H          5.08002       -2.20188        0.60283
21 21 21 21 21 21 21 21 21 21 21 21 21 21 21 21 21 21 21 21 21 21 21 21 21 21 21 21 21 21 21 21 21 21 21 21 21 21 21 21 21 21 21 21 21 21 21 21 21 21 21 21 21 21 21 21 21 21
C(C(=O)[O-])C(O)C(O)C(O)[CH]=O
InChI=1S/C6H10O6/c7-2-4(9)6(12)3(8)1-5(10)11/h2-4,6,8-9,12H,1H2,(H,10,11)/p-1/t3-,4+,6+/m1/s1
