18
metacyc CPD-13914  -852.47527232 -852.47527232 -852.47527232 -852.47527232 -852.47527232 -852.47527232 -852.47527232 -852.47527232 -852.47527232 -852.47527232 -852.47527232 -852.47527232 -852.47527232 -852.47527232 -852.47527232
C          0.99987        0.23878       -0.06326
O          0.41422       -0.55567        0.96808
C          2.52706        0.06465       -0.12094
O          2.80612       -1.31113       -0.44969
C          2.94417       -1.70323       -1.72911
O          2.91633       -2.89200       -2.02964
C          2.99894       -0.61128       -2.84707
O          2.98651       -0.93543       -4.03105
O          2.84204        0.67258       -2.47078
C          3.14628        1.02848       -1.10781
C          4.65540        1.04264       -0.82418
O          5.33333        0.19193       -1.46009
O          5.01113        1.87872        0.05325
H          0.73383        1.28241        0.13472
H          0.53128       -0.06818       -1.00379
H          0.98367       -0.49157        1.75331
H          2.93189        0.22138        0.88503
H          2.76098        2.04311       -0.95455
18 18 18 18 18 18 18 18 18 18 18 18 18 18 18 18 18 18 18 18 18 18 18 18 18 18 18 18 18 18 18 18 18 18 18 18 18 18 18 18 18 18 18 18 18 18 18 18 18
C(O)C1(OC(=O)C(=O)OC(C(=O)[O-])1)
InChI=1S/C6H6O7/c7-1-2-3(4(8)9)13-6(11)5(10)12-2/h2-3,7H,1H2,(H,8,9)/p-1
