20
metacyc CPD-18155  -833.51773568 -833.51773568 -833.51773568 -833.51773568 -833.51773568 -833.51773568 -833.51773568 -833.51773568 -833.51773568 -833.51773568 -833.51773568 -833.51773568 -833.51773568 -833.51773568 -833.51773568
C         -0.45760       -0.64198        1.65537
O         -1.04839       -0.98963        2.59016
C         -1.33444       -0.36669        0.91496
O         -0.90767        0.05225       -0.21164
C         -2.53279       -0.28906        0.70311
C         -2.95054       -0.70298        1.82532
O         -3.91082       -0.13887        0.30232
C         -3.67893       -1.38071        3.64113
O         -3.05453       -1.75525        4.64912
C         -5.24667       -1.47030        3.88281
C         -5.71400       -1.05523        2.76660
O         -7.02327       -0.90077        2.35124
C         -4.58043       -0.75556        1.96074
C         -2.61161       -0.76244        1.97941
O         -6.10945       -1.84200        4.88241
O          0.63411       -0.45914        1.16359
H         -3.45510        0.17945       -0.55372
H         -7.64217       -1.16632        3.06536
H         -5.27041       -0.45401        1.14979
H         -5.57687       -2.12130        5.63350
20 20 20 20 20 20 20 20 20 20 20 20 20 20 20 20 20 20 20 20 20 20 20 20 20 20 20 20 20 20 20 20 20 20 20 20 20 20 20 20 20 20 20 20 20 20 20 20 20 20 20 20 20 20 20
C1(OC(=O)C2(=C(O)C(=O)C(=C(O)C=C12)O))(=O)
InChI=1S/C9H4O7/c10-3-1-2-4(9(15)16-8(2)14)6(12)7(13)5(3)11/h1H,(H3,10,11,12,13)
