12
metacyc CPD-66  -875.568944 -875.568944 -875.568944 -875.568944 -875.568944 -875.568944 -875.568944 -875.568944 -875.568944 -875.568944 -875.568944 -875.568944 -875.568944 -875.568944 -875.568944
C          0.98966        0.16590        0.17684
C          0.16529        0.90331       -0.90361
C         -0.74836        1.91358       -0.23326
C         -0.22563        3.32398        0.08581
O         -0.99297        4.12046        0.72503
O          0.92490        3.62640       -0.37810
O         -1.93334        1.68424        0.03740
O          1.00990        1.46883       -1.92833
O          0.45224       -0.87989        0.65995
O          2.15320        0.60875        0.41140
H         -0.47297        0.17544       -1.41740
H          1.54448        2.12339       -1.40865
12 12 12 12 12 12 12 12 12 12 12 12 12 12 12 12 12 12 12 12 12 12 12 12 12 12 12 12 12 12 12
C(C(C(C([O-])=O)=O)O)([O-])=O
InChI=1S/C4H4O6/c5-1(3(7)8)2(6)4(9)10/h1,5H,(H,7,8)(H,9,10)/p-2
