16
metacyc CPD-14558  -28.3812410096 -28.3812410096 -28.3812410096 -28.3812410096 -28.3812410096 -28.3812410096 -28.3812410096 -28.3812410096 -28.3812410096 -28.3812410096 -28.3812410096 -28.3812410096 -28.3812410096 -28.3812410096 -28.3812410096
C          1.07115       -0.02664        0.03499
O          2.49169       -0.00473        0.10737
C          3.08025        1.13501        0.63956
C          2.45693        2.50083        0.56653
O          1.33121        2.71812        0.13366
C          3.26850        3.64404        1.03989
C          4.46625        3.47469        1.60315
C          5.03464        2.13026        1.77705
O          6.09983        1.96241        2.35456
C          4.28306        0.99825        1.21020
H          0.76906       -1.05049       -0.20822
H          0.70595        0.61399       -0.77260
H          0.61893        0.23680        0.99681
H          2.83065        4.62726        0.91012
H          5.06308        4.30598        1.95882
H          4.76527        0.02992        1.27757
16 16 16 16 16 16 16 16 16 16 16 16 16 16 16 16 16 16 16 16 16 16 16 16 16 16 16 16 16 16 16 16 16 16 16 16 16 16 16 16 16 16 16
COC1(C(=O)C=CC(=O)C=1)
InChI=1S/C7H6O3/c1-10-7-4-5(8)2-3-6(7)9/h2-4H,1H3
