20
metacyc CPD-10599  -199.678119744 -199.678119744 -199.678119744 -199.678119744 -199.678119744 -199.678119744 -199.678119744 -199.678119744 -199.678119744 -199.678119744 -199.678119744 -199.678119744 -199.678119744 -199.678119744 -199.678119744
C          2.74299        0.09334       -1.78009
O          2.75004        1.15022       -2.46783
O          2.93648       -1.10036       -2.15043
C          2.45880        0.24692       -0.30025
C          3.10422        1.47760        0.27164
O          2.47508        2.27161        0.97751
C          4.57162        1.69049        0.11786
C          5.05497        3.00665        0.12809
C          6.42622        3.25596        0.03990
C          7.30944        2.18226       -0.04220
O          8.65554        2.38211       -0.12980
C          6.84358        0.87101       -0.03928
C          5.47034        0.62129        0.03268
H          2.79158       -0.62765        0.26947
H          1.37364        0.32703       -0.17375
H          4.35358        3.83515        0.19213
H          6.77710        4.28150        0.03919
H          8.80409        3.32944       -0.28473
H          7.54252        0.04294       -0.10358
H          5.11971       -0.40725        0.02541
20 20 20 20 20 20 20 20 20 20 20 20 20 20 20 20 20 20 20 20 20 20 20 20 20 20 20 20 20 20 20 20 20 20 20 20 20 20 20 20 20 20 20 20 20 20 20 20 20 20 20 20 20 20 20
C([O-])(=O)CC(=O)C1(C=CC(O)=CC=1)
InChI=1S/C9H8O4/c10-7-3-1-6(2-4-7)8(11)5-9(12)13/h1-4,10H,5H2,(H,12,13)/p-1
