22
metacyc CPD-16414  -77.138579592 -77.138579592 -77.138579592 -77.138579592 -77.138579592 -77.138579592 -77.138579592 -77.138579592 -77.138579592 -77.138579592 -77.138579592 -77.138579592 -77.138579592 -77.138579592 -77.138579592
C          0.90786       -0.19281        0.12687
C          2.42788       -0.09650        0.05170
O          2.99500       -1.07229        0.92300
C          2.95337       -0.28367       -1.38924
O          2.42505        0.71000       -2.26442
C          4.48423       -0.24667       -1.45587
C          5.04464       -0.37035       -2.87241
O          6.46835       -0.33347       -2.79373
C          4.59633       -1.67064       -3.52363
O          5.24594       -2.71189       -3.45052
H          0.57227       -0.09582        1.16501
H          0.56066       -1.17067       -0.22485
H          0.42393        0.58572       -0.46973
H          2.72705        0.89015        0.42331
H          2.61179       -1.93992        0.70391
H          2.60874       -1.25765       -1.75581
H          2.65961        1.58468       -1.90362
H          4.90683       -1.04011       -0.82587
H          4.84832        0.69899       -1.03311
H          4.72895        0.46136       -3.51095
H          6.75316       -1.23585       -2.54487
H          3.61914       -1.63950       -4.03609
22 22 22 22 22 22 22 22 22 22 22 22 22 22 22 22 22 22 22 22 22 22 22 22 22 22 22 22 22 22 22 22 22 22 22 22 22 22 22 22 22 22 22 22 22 22 22 22 22 22 22 22 22 22 22 22 22 22 22 22 22
CC(O)C(O)CC(O)C=O
InChI=1S/C6H12O4/c1-4(8)6(10)2-5(9)3-7/h3-6,8-10H,2H2,1H3/t4-,5-,6+/m1/s1
