14
metacyc CPD-19884  -572.1889868 -572.1889868 -572.1889868 -572.1889868 -572.1889868 -572.1889868 -572.1889868 -572.1889868 -572.1889868 -572.1889868 -572.1889868 -572.1889868 -572.1889868 -572.1889868 -572.1889868
C          1.05857       -0.07549       -0.06166
C          0.43752       -1.47057       -0.02148
C          1.36957       -2.65803       -0.23965
C          2.41181       -2.62758        0.89506
O          2.16618       -3.42802        1.84436
O          3.36407       -1.81479        0.73481
O          0.67602       -3.92212       -0.21665
O         -0.79249       -1.58182        0.11910
O          0.03439        0.92479       -0.05537
H          1.63300        0.04177       -0.98505
H          1.69033        0.08941        0.81399
H          1.84728       -2.56109       -1.21795
H          0.79114       -4.20519        0.72230
H         -0.77062        0.45328        0.24430
14 14 14 14 14 14 14 14 14 14 14 14 14 14 14 14 14 14 14 14 14 14 14 14 14 14 14 14 14 14 14 14 14 14 14 14 14
C(C(C(C(=O)[O-])O)=O)O
InChI=1S/C4H6O5/c5-1-2(6)3(7)4(8)9/h3,5,7H,1H2,(H,8,9)/p-1/t3-/m0/s1
