17
metacyc CPD-7368  -217.79563052 -217.79563052 -217.79563052 -217.79563052 -217.79563052 -217.79563052 -217.79563052 -217.79563052 -217.79563052 -217.79563052 -217.79563052 -217.79563052 -217.79563052 -217.79563052 -217.79563052
C          0.93045       -0.11147        0.06045
C          0.35388       -1.16209       -0.80171
C          0.62308       -2.51242       -0.53837
C          0.09041       -3.51333       -1.35888
C         -0.70790       -3.16416       -2.44726
C         -0.96690       -1.81486       -2.69801
C         -0.45059       -0.79993       -1.88187
N         -1.78003       -1.42519       -3.83200
O         -1.35664       -1.70280       -4.96181
O         -2.79757       -0.76261       -3.58406
O         -1.24368       -4.13857       -3.23548
O          1.65711       -0.38213        1.00774
H          0.67715        0.93262       -0.19142
H          1.24867       -2.78789        0.31044
H          0.30565       -4.55318       -1.12637
H         -0.67011        0.24346       -2.09507
H         -0.86819       -5.00449       -2.99894
17 17 17 17 17 17 17 17 17 17 17 17 17 17 17 17 17 17 17 17 17 17 17 17 17 17 17 17 17 17 17 17 17 17 17 17 17 17 17 17 17 17 17 17 17 17
C(C1(C=CC(=C(C=1)[N+](=O)[O-])O))=O
InChI=1S/C7H5NO4/c9-4-5-1-2-7(10)6(3-5)8(11)12/h1-4,10H
