30
metacyc CPD-370  -500.09837392 -500.09837392 -500.09837392 -500.09837392 -500.09837392 -500.09837392 -500.09837392 -500.09837392 -500.09837392 -500.09837392 -500.09837392 -500.09837392 -500.09837392 -500.09837392 -500.09837392
C          0.23453       -0.81455       -4.15013
C          1.08230        0.38743       -3.83237
N          1.37232        0.52431       -2.49920
C          2.39196        1.48650       -2.01652
C          1.75189        2.79265       -1.50519
C          1.04858        3.61194       -2.61060
C          0.36713        4.87884       -2.04087
C          1.34772        5.89644       -1.43533
O          0.65617        7.05628       -0.94971
O         -0.36858        5.52927       -3.09596
O          1.93112        3.98162       -3.67712
O          0.75092        2.50643       -0.50909
C          3.24976        0.85728       -0.87429
O          4.21946        1.54475       -0.45299
O          2.86852       -0.31459       -0.55849
O          1.45737        1.17846       -4.69412
H         -0.25460       -1.20452       -3.25257
H          0.86017       -1.59696       -4.58726
H         -0.54415       -0.52471       -4.86089
H          1.40191       -0.32228       -1.92426
H          3.08792        1.69639       -2.83738
H          2.53025        3.40400       -1.03941
H          0.24661        3.01851       -3.06458
H         -0.38147        4.60479       -1.29056
H          2.06633        6.24689       -2.18246
H          1.89355        5.47166       -0.58998
H         -0.24905        6.77097       -0.73530
H          0.29001        5.67818       -3.80032
H          2.08338        3.15651       -4.18484
H          0.33072        1.67362       -0.79560
30 30 30 30 30 30 30 30 30 30 30 30 30 30 30 30 30 30 30 30 30 30 30 30 30 30 30 30 30 30 30 30 30 30 30 30 30 30 30 30 30 30 30 30 30 30 30 30 30 30 30 30 30 30 30 30 30 30 30 30 30 30 30 30 30 30 30 30 30 30 30 30 30 30 30 30 30 30 30 30 30 30 30 30 30
CC(NC(C(C(C(CO)O)O)O)C([O-])=O)=O
InChI=1S/C8H15NO7/c1-3(11)9-5(8(15)16)7(14)6(13)4(12)2-10/h4-7,10,12-14H,2H2,1H3,(H,9,11)(H,15,16)/p-1/t4-,5-,6-,7-/m1/s1
