22
metacyc CPD-19220  -333.83638104 -333.83638104 -333.83638104 -333.83638104 -333.83638104 -333.83638104 -333.83638104 -333.83638104 -333.83638104 -333.83638104 -333.83638104 -333.83638104 -333.83638104 -333.83638104 -333.83638104
C          0.79033        0.05070        0.04513
O          0.23650       -1.04006        0.77705
C          2.33991        0.01557        0.06235
O          2.71627        0.01599        1.46582
C          2.89112        1.30969       -0.56302
C          3.72278        1.19458       -1.81064
O          4.12193        2.19154       -2.41762
C          4.10278       -0.12314       -2.34873
O          4.88369       -0.16592       -3.49241
C          3.70724       -1.24737       -1.75254
O          4.07868       -2.47562       -2.27826
C          2.86436       -1.32228       -0.51993
H          0.42064        0.96268        0.52700
H          0.40236        0.01587       -0.97767
H          0.75069       -1.10964        1.60466
H          2.47164        0.87383        1.85746
H          3.50914        1.85051        0.16465
H          2.06028        1.97698       -0.82736
H          5.04207        0.77754       -3.71932
H          4.62431       -2.28142       -3.06778
H          3.44783       -1.85311        0.24487
H          2.01985       -1.98329       -0.75412
22 22 22 22 22 22 22 22 22 22 22 22 22 22 22 22 22 22 22 22 22 22 22 22 22 22 22 22 22 22 22 22 22 22 22 22 22 22 22 22 22 22 22 22 22 22 22 22 22 22 22 22 22 22 22 22 22 22 22 22 22
C(O)C1(O)(CC(=O)C(O)=C(O)C1)
InChI=1S/C7H10O5/c8-3-7(12)1-4(9)6(11)5(10)2-7/h8-9,11-12H,1-3H2/t7-/m0/s1
