30
metacyc CPD-13462  -245.028453904 -245.028453904 -245.028453904 -245.028453904 -245.028453904 -245.028453904 -245.028453904 -245.028453904 -245.028453904 -245.028453904 -245.028453904 -245.028453904 -245.028453904 -245.028453904 -245.028453904
C          1.10084       -0.24542        0.35982
C          2.60610       -0.15817        0.39446
O          3.21111        0.61540        1.12355
N          3.23098       -1.04575       -0.44007
C          4.70205       -1.05346       -0.58069
C          5.20726       -2.45411       -0.99461
O          4.66572       -3.44689       -0.12804
O          4.83144       -2.77751       -2.32883
C          5.33921       -1.86085       -3.32233
C          6.85982       -2.02435       -3.51852
O          7.16293       -3.36881       -3.89733
C          4.86523       -0.42659       -3.02914
O          5.40250        0.50949       -3.96336
C          5.19819       -0.00017       -1.58983
O          6.62272        0.17510       -1.50758
H          0.67555        0.51607        1.02651
H          0.78100       -1.23176        0.70426
H          0.74264       -0.07073       -0.65640
H          2.68454       -1.51735       -1.15749
H          5.11280       -0.82806        0.41023
H          6.29429       -2.51345       -0.89110
H          3.77842       -3.13618        0.11860
H          4.87802       -2.17966       -4.26696
H          7.43165       -1.82560       -2.61148
H          7.23179       -1.36263       -4.30630
H          6.64814       -3.94962       -3.30550
H          3.77499       -0.40405       -3.14639
H          6.24385        0.83231       -3.58154
H          4.75743        0.98378       -1.38854
H          6.87074        0.25562       -0.56714
30 30 30 30 30 30 30 30 30 30 30 30 30 30 30 30 30 30 30 30 30 30 30 30 30 30 30 30 30 30 30 30 30 30 30 30 30 30 30 30 30 30 30 30 30 30 30 30 30 30 30 30 30 30 30 30 30 30 30 30 30 30 30 30 30 30 30 30 30 30 30 30 30 30 30 30 30 30 30 30 30 30 30 30 30
CC(=O)NC1(C(O)OC(CO)C(O)C(O)1)
InChI=1S/C8H15NO6/c1-3(11)9-5-7(13)6(12)4(2-10)15-8(5)14/h4-8,10,12-14H,2H2,1H3,(H,9,11)/t4-,5+,6-,7-,8+/m1/s1
