17
metacyc CPD-10231  -113.617934192 -113.617934192 -113.617934192 -113.617934192 -113.617934192 -113.617934192 -113.617934192 -113.617934192 -113.617934192 -113.617934192 -113.617934192 -113.617934192 -113.617934192 -113.617934192 -113.617934192
C          0.94983        0.01838        0.07670
O          0.39516       -1.12505        0.06868
O          0.34823        1.13886        0.10236
C          2.46316        0.05481        0.06366
C          3.14873        1.27794        0.09976
C          4.53919        1.30008        0.06762
O          5.21991        2.48528        0.07133
C          5.27293        0.11929        0.02163
C          4.61652       -1.11295        0.04452
N          5.34247       -2.30644       -0.11662
C          3.21720       -1.13225        0.00902
H          2.56740        2.19612        0.13749
H          4.54882        3.18905        0.07042
H          6.35467        0.16838       -0.03135
H          6.26964       -2.25528        0.28897
H          4.81503       -3.11184        0.20854
H          2.68213       -2.07880       -0.04941
17 17 17 17 17 17 17 17 17 17 17 17 17 17 17 17 17 17 17 17 17 17 17 17 17 17 17 17 17 17 17 17 17 17 17 17 17 17 17 17 17 17 17 17 17 17
C(=O)([O-])C1(C=C(O)C=C(N)C=1)
InChI=1S/C7H7NO3/c8-5-1-4(7(10)11)2-6(9)3-5/h1-3,9H,8H2,(H,10,11)/p-1
