17
metacyc CPD-628  -1165.5586368 -1165.5586368 -1165.5586368 -1165.5586368 -1165.5586368 -1165.5586368 -1165.5586368 -1165.5586368 -1165.5586368 -1165.5586368 -1165.5586368 -1165.5586368 -1165.5586368 -1165.5586368 -1165.5586368
C          2.58485       -0.76413       -1.57708
O          2.13770       -0.11876       -2.58345
O          3.11235       -1.91551       -1.60210
C          2.34520       -0.08927       -0.17105
C          2.95174       -0.80873        1.04424
C          4.47792       -0.76738        1.10820
O          5.05491        0.18500        0.48723
O          5.03911       -1.67437        1.80254
C          2.40298       -0.24070        2.35114
C          1.20442       -0.92923        3.05339
O          0.60238       -1.86573        2.42582
O          0.86120       -0.51644        4.21975
O          2.82139        0.77774        2.91258
O          2.77440        1.30529       -0.20847
H          1.25483       -0.05100       -0.05213
H          2.67426       -1.86913        0.99856
H          3.75721        1.21667       -0.12145
17 17 17 17 17 17 17 17 17 17 17 17 17 17 17 17 17 17 17 17 17 17 17 17 17 17 17 17 17 17 17 17 17 17 17 17 17 17 17 17 17 17 17 17 17 17
C([O-])(=O)C(C(C(=O)[O-])C(C([O-])=O)=O)O
InChI=1S/C6H6O8/c7-2(5(11)12)1(4(9)10)3(8)6(13)14/h1-2,7H,(H,9,10)(H,11,12)(H,13,14)/p-3
