13
metacyc CPD-655  -596.11682256 -596.11682256 -596.11682256 -596.11682256 -596.11682256 -596.11682256 -596.11682256 -596.11682256 -596.11682256 -596.11682256 -596.11682256 -596.11682256 -596.11682256 -596.11682256 -596.11682256
C          1.00407        0.05516        0.04261
O          0.38950        0.20530        1.14380
O          0.52314        0.03828       -1.13176
C          2.56100        0.03782        0.13210
O          3.00681        0.27591        1.49231
C          3.11945       -1.24384       -0.48272
N          4.59736       -1.16704       -0.53213
C          2.78615       -2.60309        0.17876
O          2.53803       -2.60866        1.42095
O          2.84149       -3.61228       -0.59920
H          2.91198        0.90156       -0.44698
H          2.33263       -0.23133        2.00325
H          2.77374       -1.30916       -1.52232
13 13 13 13 13 13 13 13 13 13 13 13 13 13 13 13 13 13 13 13 13 13 13 13 13 13 13 13 13 13 13 13 13 13
C(=O)([O-])C(O)C([N+])C(=O)[O-]
InChI=1S/C4H7NO5/c5-1(3(7)8)2(6)4(9)10/h1-2,6H,5H2,(H,7,8)(H,9,10)/p-1/t1-,2+/m0/s1
