22
metacyc CPD-9665  -294.297564304 -294.297564304 -294.297564304 -294.297564304 -294.297564304 -294.297564304 -294.297564304 -294.297564304 -294.297564304 -294.297564304 -294.297564304 -294.297564304 -294.297564304 -294.297564304 -294.297564304
C          0.97844       -0.21959       -0.00941
O          0.47663       -1.54874        0.03545
C          2.49009       -0.19717        0.00194
C          3.08372        1.17869        0.09948
O          2.43909        1.98353       -0.89337
C          4.61559        1.30243       -0.06741
O          4.85648        1.89208       -1.36968
C          5.44918        0.03139        0.16153
O          6.23975        0.17582        1.34597
C          4.69539       -1.29789        0.14014
O          5.27091       -2.37267        0.33117
C          3.22772       -1.31564       -0.00778
H          0.57641        0.32506        0.85348
H          0.59075        0.24699       -0.91905
H          0.50721       -1.83560        0.96299
H          2.80545        1.59398        1.07577
H          3.13515        2.19748       -1.55428
H          4.95108        2.07167        0.64242
H          5.30719        1.24915       -1.94271
H          6.17632       -0.05685       -0.65532
H          5.81220       -0.32301        2.06480
H          2.78517       -2.30377       -0.06275
22 22 22 22 22 22 22 22 22 22 22 22 22 22 22 22 22 22 22 22 22 22 22 22 22 22 22 22 22 22 22 22 22 22 22 22 22 22 22 22 22 22 22 22 22 22 22 22 22 22 22 22 22 22 22 22 22 22 22 22 22
C(O)C1(C(O)C(O)C(O)C(=O)C=1)
InChI=1S/C7H10O5/c8-2-3-1-4(9)6(11)7(12)5(3)10/h1,5-8,10-12H,2H2/t5-,6+,7+/m1/s1
