15
metacyc CPD-299  -93.135450888 -93.135450888 -93.135450888 -93.135450888 -93.135450888 -93.135450888 -93.135450888 -93.135450888 -93.135450888 -93.135450888 -93.135450888 -93.135450888 -93.135450888 -93.135450888 -93.135450888
C          1.63711        0.66037       -0.90986
C          2.59697       -0.12215       -0.04962
O          2.70258       -1.34373       -0.17180
C          3.36432        0.65970        0.98952
C          4.86534        0.60482        0.75302
N          5.21071        1.22702       -0.53242
C          5.60029        1.40649        1.85027
O          4.97540        2.39238        2.34263
O          6.74311        0.96063        2.16670
H          1.22417        0.01268       -1.68806
H          2.15991        1.49182       -1.38914
H          0.82043        1.03749       -0.28896
H          3.10721        0.24209        1.97073
H          2.99142        1.69104        0.98845
H          5.21671       -0.43229        0.75353
15 15 15 15 15 15 15 15 15 15 15 15 15 15 15 15 15 15 15 15 15 15 15 15 15 15 15 15 15 15 15 15 15 15 15 15 15 15 15 15
CC(=O)CC([N+])C(=O)[O-]
InChI=1S/C5H9NO3/c1-3(7)2-4(6)5(8)9/h4H,2,6H2,1H3,(H,8,9)/t4-/m1/s1
