21
metacyc CPD-150  -877.51329064 -877.51329064 -877.51329064 -877.51329064 -877.51329064 -877.51329064 -877.51329064 -877.51329064 -877.51329064 -877.51329064 -877.51329064 -877.51329064 -877.51329064 -877.51329064 -877.51329064
C          1.01100        0.37907        0.03591
C          0.53564        1.20844        1.23863
O          1.41322        1.67451        2.02059
O         -0.72551        1.33345        1.33913
C          2.52857        0.19985       -0.15490
C          2.95113       -0.73213       -1.32890
O          2.32041       -2.02229       -1.08634
C          2.44903       -0.14831       -2.71273
O          2.92906        0.96127       -3.09144
O          1.54370       -0.85416       -3.27425
C          4.48131       -0.89832       -1.33184
C          5.24488       -1.70242       -2.39892
O          4.65944       -2.66472       -2.96631
O          6.47352       -1.37755       -2.51776
H          0.59200        0.84559       -0.86520
H          0.54103       -0.60876        0.13233
H          2.92467       -0.22320        0.77892
H          2.99231        1.18726       -0.27234
H          1.88502       -2.17474       -1.95908
H          4.77515       -1.37038       -0.38357
H          4.93121        0.10173       -1.33165
21 21 21 21 21 21 21 21 21 21 21 21 21 21 21 21 21 21 21 21 21 21 21 21 21 21 21 21 21 21 21 21 21 21 21 21 21 21 21 21 21 21 21 21 21 21 21 21 21 21 21 21 21 21 21 21 21 21
C(C([O-])=O)CC(O)(C([O-])=O)CC(=O)[O-]
InChI=1S/C7H10O7/c8-4(9)1-2-7(14,6(12)13)3-5(10)11/h14H,1-3H2,(H,8,9)(H,10,11)(H,12,13)/p-3/t7-/m0/s1
