6
metacyc CPD-1541  -261.323251104 -261.323251104 -261.323251104 -261.323251104 -261.323251104 -261.323251104 -261.323251104 -261.323251104 -261.323251104 -261.323251104 -261.323251104 -261.323251104 -261.323251104 -261.323251104 -261.323251104
N          1.03321        0.07422       -0.10524
O          0.46095       -0.94845        0.64933
N          2.27289        0.02453       -0.06858
O          2.84535        1.04711       -0.82309
H         -0.48585       -0.77328        0.52008
H          3.79211        0.87182       -0.69374
6 6 6 6 6 6 6 6 6 6 6 6 6
N(O)=NO
InChI=1S/H2N2O2/c3-1-2-4/h(H,1,4)(H,2,3)
