21
metacyc CPD-12923  -329.73606104 -329.73606104 -329.73606104 -329.73606104 -329.73606104 -329.73606104 -329.73606104 -329.73606104 -329.73606104 -329.73606104 -329.73606104 -329.73606104 -329.73606104 -329.73606104 -329.73606104
C         -1.81255        0.79356       -0.36916
O         -1.63523       -0.58201       -0.76271
C         -0.64330       -1.06544        0.15906
O         -0.56805       -0.04030        1.15629
C         -0.50610        1.19107        0.33717
C          1.04364        1.25937        0.42609
O          1.41504        1.52878        1.79807
C          1.72748       -0.08178       -0.01292
O          2.48132       -0.64735        1.08406
C          0.74216       -1.16529       -0.53824
O          1.33242       -2.46086       -0.34705
H         -2.66190        0.84313        0.32472
H         -2.07662        1.40997       -1.23821
H         -0.97108       -2.01060        0.60213
H         -0.19575        1.17551       -0.73543
H          1.44349        2.10222       -0.15378
H          0.82311        0.95322        2.32959
H          2.46121        0.12932       -0.79941
H          2.70612        0.11707        1.65744
H          0.60483       -1.04100       -1.61842
H          1.97101       -2.33837        0.39026
21 21 21 21 21 21 21 21 21 21 21 21 21 21 21 21 21 21 21 21 21 21 21 21 21 21 21 21 21 21 21 21 21 21 21 21 21 21 21 21 21 21 21 21 21 21 21 21 21 21 21 21 21 21 21 21 21 21
C1(OC2(OC1C(O)C(O)C(O)2))
InChI=1S/C6H10O5/c7-3-2-1-10-6(11-2)5(9)4(3)8/h2-9H,1H2/t2-,3-,4+,5-,6-/m1/s1
