16
metacyc CPD-7616  -73.986830968 -73.986830968 -73.986830968 -73.986830968 -73.986830968 -73.986830968 -73.986830968 -73.986830968 -73.986830968 -73.986830968 -73.986830968 -73.986830968 -73.986830968 -73.986830968 -73.986830968
C          1.05119       -0.11281        0.23291
C          0.24939        0.40676        1.35792
C         -0.59658       -0.45529        2.06697
C         -1.34512        0.05781        3.11782
C         -1.25444        1.40726        3.45499
C         -0.41425        2.26473        2.75709
C          0.34616        1.76267        1.69921
O         -2.00015        1.90327        4.48519
O         -2.18891       -0.72601        3.85485
O          0.99606       -1.28704       -0.11182
H          1.70413        0.60917       -0.28580
H         -0.65764       -1.50340        1.78819
H         -0.35492        3.31295        3.03563
H          1.00320        2.43403        1.15242
H         -2.51000        1.13558        4.81384
H         -2.12650       -1.63893        3.52153
16 16 16 16 16 16 16 16 16 16 16 16 16 16 16 16 16 16 16 16 16 16 16 16 16 16 16 16 16 16 16 16 16 16 16 16 16 16 16 16 16 16 16
C(C1(C=C(C(=CC=1)O)O))=O
InChI=1S/C7H6O3/c8-4-5-1-2-6(9)7(10)3-5/h1-4,9-10H
