17
metacyc CPD-705  -86.672957456 -86.672957456 -86.672957456 -86.672957456 -86.672957456 -86.672957456 -86.672957456 -86.672957456 -86.672957456 -86.672957456 -86.672957456 -86.672957456 -86.672957456 -86.672957456 -86.672957456
C          1.05092        0.03236        0.11818
O          0.47881       -1.10237        0.16293
O          0.46833        1.16192        0.15847
C          2.56391        0.03896        0.00536
C          3.27753        1.24508       -0.05599
C          4.67276        1.25352       -0.16449
C          5.39395        0.05592       -0.18965
N          6.79958        0.02403       -0.36562
O          7.52705        1.21340       -0.33710
C          4.68630       -1.15134       -0.14967
C          3.29060       -1.15971       -0.04746
H          2.72969        2.18552       -0.01995
H          5.18012        2.21131       -0.20521
H          7.20768       -0.69719        0.23034
H          7.25110        1.64675       -1.16756
H          5.20982       -2.10071       -0.21079
H          2.75217       -2.10565       -0.01560
17 17 17 17 17 17 17 17 17 17 17 17 17 17 17 17 17 17 17 17 17 17 17 17 17 17 17 17 17 17 17 17 17 17 17 17 17 17 17 17 17 17 17 17 17 17
C(=O)([O-])C1(C=CC(NO)=CC=1)
InChI=1S/C7H7NO3/c9-7(10)5-1-3-6(8-11)4-2-5/h1-4,8,11H,(H,9,10)/p-1
