17
metacyc CPD-12849  -900.66951312 -900.66951312 -900.66951312 -900.66951312 -900.66951312 -900.66951312 -900.66951312 -900.66951312 -900.66951312 -900.66951312 -900.66951312 -900.66951312 -900.66951312 -900.66951312 -900.66951312
C          0.95135        0.24784        0.22010
C          0.15889        1.04132        0.98028
O          0.64319        1.98699        1.88221
C         -1.43149        0.94944        0.89096
O         -1.93031        0.58450       -0.21728
O         -2.07065        1.29840        1.93852
C          2.41305        0.08869        0.06580
C          2.94423       -0.79696       -0.81862
C          2.43233       -1.83930       -1.82067
O          1.32688       -2.40093       -1.59383
O          3.25141       -2.10162       -2.76187
C          3.48041        0.91523        0.87961
O          3.04518        1.79257        1.68958
O          4.71167        0.65836        0.68482
H          0.39379       -0.43145       -0.43142
H          1.63254        1.94013        1.85016
H          4.03778       -0.81909       -0.88855
17 17 17 17 17 17 17 17 17 17 17 17 17 17 17 17 17 17 17 17 17 17 17 17 17 17 17 17 17 17 17 17 17 17 17 17 17 17 17 17 17 17 17 17 17 17
C(=C(O)C(=O)[O-])C(=CC(=O)[O-])C(=O)[O-]
InChI=1S/C7H6O7/c8-4(7(13)14)1-3(6(11)12)2-5(9)10/h1-2,8H,(H,9,10)(H,11,12)(H,13,14)/p-3/b3-2+,4-1+
