17
metacyc CPD-13499  -503.94798864 -503.94798864 -503.94798864 -503.94798864 -503.94798864 -503.94798864 -503.94798864 -503.94798864 -503.94798864 -503.94798864 -503.94798864 -503.94798864 -503.94798864 -503.94798864 -503.94798864
C          0.90373       -0.06753       -0.08727
O          0.23155       -1.14258       -0.08950
O          0.38698        1.10634       -0.08763
C          2.42415       -0.09672       -0.08443
C          3.13994        1.12313       -0.08297
O          2.50698        2.34526       -0.08368
C          4.53440        1.17827       -0.08085
C          5.25391       -0.00500       -0.08010
O          6.61945       -0.00546       -0.07795
C          4.59777       -1.22754       -0.08144
C          3.19447       -1.27213       -0.08353
O          2.60596       -2.50565       -0.08432
H          1.53079        2.13070       -0.08528
H          5.01961        2.14721       -0.07981
H          6.90768        0.92227       -0.07679
H          5.18564       -2.13870       -0.08038
H          3.27939       -3.19724       -0.09102
17 17 17 17 17 17 17 17 17 17 17 17 17 17 17 17 17 17 17 17 17 17 17 17 17 17 17 17 17 17 17 17 17 17 17 17 17 17 17 17 17 17 17 17 17 17
C(=O)([O-])C1(=C(O)C=C(O)C=C(O)1)
InChI=1S/C7H6O5/c8-3-1-4(9)6(7(11)12)5(10)2-3/h1-2,8-10H,(H,11,12)/p-1
