19
metacyc CPD-18293  -246.036864848 -246.036864848 -246.036864848 -246.036864848 -246.036864848 -246.036864848 -246.036864848 -246.036864848 -246.036864848 -246.036864848 -246.036864848 -246.036864848 -246.036864848 -246.036864848 -246.036864848
C          0.91959        0.09580        0.01948
O          0.27073       -0.61638       -1.03164
C          2.41795        0.07702       -0.12879
C          3.13029        1.28701       -0.18347
C          4.53282        1.31323       -0.29522
C          5.28788        2.62921       -0.36471
O          6.55095        2.56391       -0.48916
O          4.59948        3.69529       -0.29244
C          5.22015        0.09029       -0.34325
C          4.53143       -1.12165       -0.28731
C          3.14141       -1.11889       -0.18404
O          2.45585       -2.30465       -0.15819
H          0.63939       -0.36749        0.97192
H          0.52609        1.11718        0.02148
H          0.87198       -1.35416       -1.24502
H          2.60080        2.23908       -0.14352
H          6.30554        0.09841       -0.42924
H          5.09886       -2.04437       -0.33279
H          3.11345       -3.02002       -0.14707
19 19 19 19 19 19 19 19 19 19 19 19 19 19 19 19 19 19 19 19 19 19 19 19 19 19 19 19 19 19 19 19 19 19 19 19 19 19 19 19 19 19 19 19 19 19 19 19 19 19 19 19
C(O)C1(C=C(C(=O)[O-])C=CC=1O)
InChI=1S/C8H8O4/c9-4-6-3-5(8(11)12)1-2-7(6)10/h1-3,9-10H,4H2,(H,11,12)/p-1
