20
metacyc CPD-10330  -309.06708012 -309.06708012 -309.06708012 -309.06708012 -309.06708012 -309.06708012 -309.06708012 -309.06708012 -309.06708012 -309.06708012 -309.06708012 -309.06708012 -309.06708012 -309.06708012 -309.06708012
C          0.92629       -0.02894       -0.03280
C          0.36184       -0.23562       -1.43466
C         -0.31210       -1.58910       -1.67284
C         -1.17438       -1.28244       -2.88794
C         -1.61704        0.16299       -2.60339
O         -0.63460        0.75541       -1.73972
O         -1.75386        0.91544       -3.79386
O         -0.42273       -1.34484       -4.11365
O         -1.11679       -1.99118       -0.56108
O          1.89946       -1.01850        0.27571
H          0.14338       -0.03816        0.73338
H          1.40503        0.95429        0.03051
H          1.17555       -0.10626       -2.15902
H          0.42432       -2.37656       -1.86008
H         -2.03864       -1.94443       -2.99653
H         -2.57004        0.18135       -2.06458
H         -1.31739        0.39593       -4.49486
H          0.43232       -0.89416       -3.99315
H         -1.67545       -1.24110       -0.28208
H          1.41639       -1.83194        0.51641
20 20 20 20 20 20 20 20 20 20 20 20 20 20 20 20 20 20 20 20 20 20 20 20 20 20 20 20 20 20 20 20 20 20 20 20 20 20 20 20 20 20 20 20 20 20 20 20 20 20 20 20 20 20 20
C(C1(C(C(C(O1)O)O)O))O
InChI=1S/C5H10O5/c6-1-2-3(7)4(8)5(9)10-2/h2-9H,1H2/t2-,3-,4-,5+/m1/s1
