21
metacyc CPD-425  -7.4186010288 -7.4186010288 -7.4186010288 -7.4186010288 -7.4186010288 -7.4186010288 -7.4186010288 -7.4186010288 -7.4186010288 -7.4186010288 -7.4186010288 -7.4186010288 -7.4186010288 -7.4186010288 -7.4186010288
C          2.86705       -0.95193       -2.39693
O          2.88677       -2.21754       -2.52358
O          2.46737       -0.06406       -3.19986
C          3.42836       -0.43845       -1.04369
N          3.83866       -1.53289       -0.15896
C          4.45159       -1.36523        1.05112
O          4.69130       -0.27337        1.55784
C          4.86962       -2.61453        1.75177
C          5.91679       -2.53663        2.68034
C          6.35324       -3.68110        3.35080
C          5.73890       -4.90839        3.10483
C          4.68393       -4.99161        2.19602
C          4.24596       -3.84817        1.52209
H          2.66914        0.15092       -0.52010
H          4.30225        0.19600       -1.22394
H          3.76344       -2.43197       -0.62967
H          6.39844       -1.57993        2.87168
H          7.17265       -3.61167        4.06062
H          6.07998       -5.80038        3.62303
H          4.19826       -5.94565        2.00841
H          3.40954       -3.93170        0.83256
21 21 21 21 21 21 21 21 21 21 21 21 21 21 21 21 21 21 21 21 21 21 21 21 21 21 21 21 21 21 21 21 21 21 21 21 21 21 21 21 21 21 21 21 21 21 21 21 21 21 21 21 21 21 21 21 21 21
C(=O)([O-])CNC(=O)C1(C=CC=CC=1)
InChI=1S/C9H9NO3/c11-8(12)6-10-9(13)7-4-2-1-3-5-7/h1-5H,6H2,(H,10,13)(H,11,12)/p-1
