19
metacyc CPD-6442  -25.98697044 -25.98697044 -25.98697044 -25.98697044 -25.98697044 -25.98697044 -25.98697044 -25.98697044 -25.98697044 -25.98697044 -25.98697044 -25.98697044 -25.98697044 -25.98697044 -25.98697044
C          4.20707       -0.07339       -0.95968
O          3.52574        1.09135       -0.49239
C          3.01644        1.00046        0.75928
C          2.34372        2.26033        1.15019
C          1.16453        2.14959        1.90390
C          0.48247        3.29349        2.32131
C          0.97467        4.55552        1.99373
C          2.15627        4.67685        1.25958
C          2.84610        3.53210        0.84833
O          4.03470        3.67790        0.18892
O          3.01533        0.00180        1.46515
H          4.20024       -0.05183       -2.05328
H          3.71974       -0.99885       -0.63661
H          5.24495       -0.04886       -0.61615
H          0.77738        1.16704        2.16828
H         -0.42969        3.19859        2.90717
H          0.44361        5.44601        2.32055
H          2.52847        5.67048        1.02736
H          4.24856        4.62127        0.10817
19 19 19 19 19 19 19 19 19 19 19 19 19 19 19 19 19 19 19 19 19 19 19 19 19 19 19 19 19 19 19 19 19 19 19 19 19 19 19 19 19 19 19 19 19 19 19 19 19 19 19 19
COC(C1(C=CC=CC=1O))=O
InChI=1S/C8H8O3/c1-11-8(10)6-4-2-3-5-7(6)9/h2-5,9H,1H3
