26
metacyc CPD-15701  -341.59983488 -341.59983488 -341.59983488 -341.59983488 -341.59983488 -341.59983488 -341.59983488 -341.59983488 -341.59983488 -341.59983488 -341.59983488 -341.59983488 -341.59983488 -341.59983488 -341.59983488
C          1.08126        0.17240        0.03835
C          0.53286       -1.25114        0.26446
C          1.01742       -1.86112        1.61339
C          0.51131       -3.31419        1.86795
C          1.01271       -3.93183        3.19933
C          0.44141       -5.34270        3.42243
O          0.93029       -5.86980        4.65746
O          2.43964       -4.03554        3.27069
O         -0.91458       -3.37581        1.85183
O          2.44784       -1.79096        1.65757
O         -0.88827       -1.20716        0.16028
O          2.49998        0.21470       -0.03386
H          0.74913        0.84554        0.83689
H          0.68347        0.57999       -0.89745
H          0.90801       -1.88463       -0.54870
H          0.63402       -1.22807        2.42312
H          0.87925       -3.94147        1.04709
H          0.70087       -3.29979        4.03974
H          0.76918       -6.02291        2.62913
H         -0.65115       -5.34585        3.46249
H          1.85627       -5.56683        4.73391
H          2.74544       -4.58241        2.52630
H         -1.26343       -2.82134        2.57217
H          2.80077       -2.41442        0.99558
H         -1.24282       -0.69858        0.90781
H          2.83451       -0.18570        0.79596
26 26 26 26 26 26 26 26 26 26 26 26 26 26 26 26 26 26 26 26 26 26 26 26 26 26 26 26 26 26 26 26 26 26 26 26 26 26 26 26 26 26 26 26 26 26 26 26 26 26 26 26 26 26 26 26 26 26 26 26 26 26 26 26 26 26 26 26 26 26 26 26 26
C(C(C(C(C(CO)O)O)O)O)O
InChI=1S/C6H14O6/c7-1-3(9)5(11)6(12)4(10)2-8/h3-12H,1-2H2/t3-,4-,5-,6-/m0/s1
