22
metacyc CPD-10447  -235.526414176 -235.526414176 -235.526414176 -235.526414176 -235.526414176 -235.526414176 -235.526414176 -235.526414176 -235.526414176 -235.526414176 -235.526414176 -235.526414176 -235.526414176 -235.526414176 -235.526414176
C          0.87501       -0.17434        0.07967
C          2.38148       -0.08117        0.12849
C          3.05623        1.15580        0.24345
N          2.35320        2.38792        0.29124
O          3.01678        3.51591        0.78534
C          4.46437        1.17942        0.18123
C          5.20660       -0.00395        0.09928
N          6.67301        0.05849        0.06374
O          7.20403        1.17734        0.04676
O          7.29040       -1.01488        0.05211
C          4.56548       -1.23899        0.05560
C          3.16531       -1.25867        0.07338
N          2.53536       -2.57138        0.03590
O          1.80742       -2.87684        0.98940
O          2.79555       -3.28852       -0.93738
H          0.38415        0.79180       -0.05635
H          0.49088       -0.61012        1.00713
H          0.56284       -0.79026       -0.77097
H          1.43987        2.29040        0.73837
H          3.33734        3.96274       -0.02100
H          4.97963        2.13854        0.21315
H          5.12984       -2.16844        0.00286
22 22 22 22 22 22 22 22 22 22 22 22 22 22 22 22 22 22 22 22 22 22 22 22 22 22 22 22 22 22 22 22 22 22 22 22 22 22 22 22 22 22 22 22 22 22 22 22 22 22 22 22 22 22 22 22 22 22 22 22 22
CC1(C(NO)=CC([N+](=O)[O-])=CC([N+](=O)[O-])=1)
InChI=1S/C7H7N3O5/c1-4-6(8-11)2-5(9(12)13)3-7(4)10(14)15/h2-3,8,11H,1H3
