32
metacyc CPD-3615  -189.03705296 -189.03705296 -189.03705296 -189.03705296 -189.03705296 -189.03705296 -189.03705296 -189.03705296 -189.03705296 -189.03705296 -189.03705296 -189.03705296 -189.03705296 -189.03705296 -189.03705296
C          0.93593       -0.27248       -0.34344
C          2.41420       -0.23121       -0.07465
O          2.89132       -0.61780        0.98384
N          3.16139        0.27249       -1.11689
C          4.63403        0.40895       -1.01067
C          5.29179       -0.98283       -0.93789
O          5.05107       -1.69808       -2.15033
C          5.15841        1.23713       -2.21703
O          4.58773        2.56868       -2.18928
C          6.69496        1.36806       -2.37937
O          6.95448        2.15601       -3.55587
C          7.42234        2.02600       -1.19379
O          7.18467        1.29584        0.01181
C          8.93511        2.12975       -1.45127
O          9.58397        2.65915       -0.29303
H          0.47630       -1.02905        0.30018
H          0.74626       -0.55082       -1.38274
H          0.50187        0.70470       -0.13049
H          2.69196        0.86662       -1.78805
H          4.79996        0.95425       -0.07620
H          4.90484       -1.58252       -0.10995
H          6.37367       -0.91979       -0.80150
H          4.08101       -1.75502       -2.23040
H          4.77066        0.79772       -3.14565
H          4.71475        2.91920       -1.28791
H          7.11881        0.37396       -2.55889
H          6.25634        2.84167       -3.58273
H          7.03835        3.03973       -1.02891
H          8.03949        0.92110        0.30368
H          9.16640        2.76952       -2.30737
H          9.36506        1.13801       -1.62608
H          9.20567        3.54026       -0.11921
32 32 32 32 32 32 32 32 32 32 32 32 32 32 32 32 32 32 32 32 32 32 32 32 32 32 32 32 32 32 32 32 32 32 32 32 32 32 32 32 32 32 32 32 32 32 32 32 32 32 32 32 32 32 32 32 32 32 32 32 32 32 32 32 32 32 32 32 32 32 32 32 32 32 32 32 32 32 32 32 32 32 32 32 32 32 32 32 32 32 32
CC(=O)NC(CO)C(O)C(O)C(O)CO
InChI=1S/C8H17NO6/c1-4(12)9-5(2-10)7(14)8(15)6(13)3-11/h5-8,10-11,13-15H,2-3H2,1H3,(H,9,12)/t5-,6+,7+,8+/m0/s1
