12
metacyc CPD-19468  -358.973166864 -358.973166864 -358.973166864 -358.973166864 -358.973166864 -358.973166864 -358.973166864 -358.973166864 -358.973166864 -358.973166864 -358.973166864 -358.973166864 -358.973166864 -358.973166864 -358.973166864
C         -0.69228        1.20092        0.00123
N          0.66660        1.15288        0.00132
C          1.38694       -0.00037        0.00122
N          0.66589       -1.15318        0.00127
C         -0.69302       -1.20038        0.00114
O         -1.30656       -2.26231        0.00098
N         -1.33086        0.00047        0.00114
O          2.61337       -0.00075        0.00105
O         -1.30517        2.26323        0.00121
H          1.17123        2.02629        0.00129
H          1.16998       -2.02690        0.00119
H         -2.33956        0.00078        0.00101
12 12 12 12 12 12 12 12 12 12 12 12 12 12 12 12 12 12 12 12 12 12 12 12 12 12 12 12 12 12 12
C1(NC(NC(=O)N1)=O)=O
InChI=1S/C3H3N3O3/c7-1-4-2(8)6-3(9)5-1/h(H3,4,5,6,7,8,9)
