23
metacyc CPD-6982  -305.984145744 -305.984145744 -305.984145744 -305.984145744 -305.984145744 -305.984145744 -305.984145744 -305.984145744 -305.984145744 -305.984145744 -305.984145744 -305.984145744 -305.984145744 -305.984145744 -305.984145744
C         -0.23264        0.80113        4.00906
C         -1.27325       -0.02837        3.19144
C         -0.75288       -0.13104        1.76131
C         -1.68815       -0.84633        0.80546
C         -1.66774       -2.24972        0.72390
C         -2.45816       -2.92657       -0.20798
C         -3.27576       -2.19390       -1.05780
O         -4.03659       -2.79730       -2.02228
C         -3.33109       -0.80402       -0.95735
O         -4.14946       -0.09815       -1.79741
C         -2.55284       -0.12459       -0.03008
O         -1.38869       -1.34635        3.79247
O          0.02351        1.96422        3.59737
O          0.22439        0.16890        5.01487
H         -2.25316        0.45675        3.24547
H          0.20789       -0.66416        1.75202
H         -0.54083        0.86454        1.35112
H         -1.02378       -2.81267        1.39809
H         -2.41309       -4.00873       -0.25021
H         -3.80660       -3.74205       -2.01470
H         -4.57216       -0.78891       -2.34367
H         -2.60304        0.95894        0.03156
H         -0.79482       -1.25506        4.58033
23 23 23 23 23 23 23 23 23 23 23 23 23 23 23 23 23 23 23 23 23 23 23 23 23 23 23 23 23 23 23 23 23 23 23 23 23 23 23 23 23 23 23 23 23 23 23 23 23 23 23 23 23 23 23 23 23 23 23 23 23 23 23 23
C(C(CC1(C=CC(O)=C(O)C=1))O)(=O)[O-]
InChI=1S/C9H10O5/c10-6-2-1-5(3-7(6)11)4-8(12)9(13)14/h1-3,8,10-12H,4H2,(H,13,14)/p-1/t8-/m1/s1
