20
metacyc CPD-526  -520.3683686 -520.3683686 -520.3683686 -520.3683686 -520.3683686 -520.3683686 -520.3683686 -520.3683686 -520.3683686 -520.3683686 -520.3683686 -520.3683686 -520.3683686 -520.3683686 -520.3683686
C          1.14751       -0.19239        0.10719
C          0.19122        0.87072        0.60902
O          0.69501        2.17332        0.25454
C          0.43550        2.73031       -0.95459
C         -0.95123        2.47183       -1.51471
C         -1.32104        1.00176       -1.37818
C         -1.20931        0.56332        0.08665
O         -2.18417        1.22500        0.91036
O         -2.65678        0.78274       -1.84794
O         -1.89316        3.27602       -0.77898
O          1.17768        3.57727       -1.44309
O          1.81402       -0.07464       -0.91648
H          1.16739       -1.12739        0.69243
H          0.20356        0.83385        1.70382
H         -0.99916        2.77492       -2.56658
H         -0.65881        0.39155       -2.00234
H         -1.43707       -0.50585        0.16935
H         -2.19155        2.17728        0.67192
H         -3.23722        1.34729       -1.29951
H         -1.61707        4.20453       -0.92279
20 20 20 20 20 20 20 20 20 20 20 20 20 20 20 20 20 20 20 20 20 20 20 20 20 20 20 20 20 20 20 20 20 20 20 20 20 20 20 20 20 20 20 20 20 20 20 20 20 20 20 20 20 20 20
C(C1(OC(C(C(C1O)O)O)=O))=O
InChI=1S/C6H8O6/c7-1-2-3(8)4(9)5(10)6(11)12-2/h1-5,8-10H/t2-,3-,4+,5+/m1/s1
