27
metacyc CPD-1701  -257.375902328 -257.375902328 -257.375902328 -257.375902328 -257.375902328 -257.375902328 -257.375902328 -257.375902328 -257.375902328 -257.375902328 -257.375902328 -257.375902328 -257.375902328 -257.375902328 -257.375902328
C          1.11656       -0.12343       -0.27846
O          2.50979       -0.03548       -0.00896
C          2.88832       -0.43364        1.31942
C          2.66735       -1.93497        1.60781
O          1.27930       -2.28763        1.57748
C          3.45576       -2.80276        0.61272
O          3.23250       -4.18072        0.96166
C          4.95987       -2.47723        0.65788
O          5.47620       -2.92943        1.93041
C          5.20830       -0.97162        0.44743
O          6.60414       -0.68366        0.59690
C          4.39550       -0.12182        1.45135
O          4.86681       -0.41847        2.78141
H          0.91355        0.44329       -1.19101
H          0.52344        0.30101        0.53617
H          0.82914       -1.15922       -0.47468
H          2.32256        0.16479        2.04436
H          2.98793       -2.16502        2.63146
H          1.26520       -3.25716        1.43965
H          3.06031       -2.66663       -0.39975
H          3.96896       -4.41874        1.56037
H          5.49479       -3.06432       -0.09536
H          5.41133       -2.17904        2.55852
H          4.93502       -0.70035       -0.57834
H          6.82924       -0.87414        1.52662
H          4.59906        0.93766        1.25959
H          4.45410        0.23766        3.37644
27 27 27 27 27 27 27 27 27 27 27 27 27 27 27 27 27 27 27 27 27 27 27 27 27 27 27 27 27 27 27 27 27 27 27 27 27 27 27 27 27 27 27 27 27 27 27 27 27 27 27 27 27 27 27 27 27 27 27 27 27 27 27 27 27 27 27 27 27 27 27 27 27 27 27 27
COC1(C(O)C(O)C(O)C(O)C(O)1)
InChI=1S/C7H14O6/c1-13-7-5(11)3(9)2(8)4(10)6(7)12/h2-12H,1H3/t2-,3-,4+,5-,6-,7-/m0/s1
