21
metacyc CPD-15422  -193.85377836 -193.85377836 -193.85377836 -193.85377836 -193.85377836 -193.85377836 -193.85377836 -193.85377836 -193.85377836 -193.85377836 -193.85377836 -193.85377836 -193.85377836 -193.85377836 -193.85377836
C         -2.47259        0.63512       -0.07215
C         -2.39937       -0.75541       -0.02937
O         -3.52426       -1.52410       -0.03887
C         -1.17208       -1.40075        0.02343
C         -0.00920       -0.63355        0.03210
O          1.21454       -1.32696        0.07297
C          2.42770       -0.65445        0.05346
O          3.50386       -1.25123        0.00467
C          2.39769        0.84748        0.07477
N          3.63012        1.51569        0.11273
C          1.21778        1.48534        0.03823
O          1.13553        2.86627        0.08582
C         -0.04560        0.75791       -0.00463
C         -1.29437        1.38987       -0.05812
H         -3.42794        1.14898       -0.11295
H         -4.30164       -0.94343       -0.08543
H         -1.12233       -2.48551        0.05743
H          4.37907        0.83127       -0.04865
H          3.68366        2.24749       -0.59229
H          2.02185        3.17736        0.34931
H         -1.35858        2.47553       -0.08643
21 21 21 21 21 21 21 21 21 21 21 21 21 21 21 21 21 21 21 21 21 21 21 21 21 21 21 21 21 21 21 21 21 21 21 21 21 21 21 21 21 21 21 21 21 21 21 21 21 21 21 21 21 21 21 21 21 21
C2(C(O)=CC1(OC(=O)C(N)=C(O)C=1C=2))
InChI=1S/C9H7NO4/c10-7-8(12)5-2-1-4(11)3-6(5)14-9(7)13/h1-3,11-12H,10H2
