22
metacyc CPD-52  -403.70173352 -403.70173352 -403.70173352 -403.70173352 -403.70173352 -403.70173352 -403.70173352 -403.70173352 -403.70173352 -403.70173352 -403.70173352 -403.70173352 -403.70173352 -403.70173352 -403.70173352
C          0.76080       -0.01010       -0.12724
C          2.27830       -0.12456       -0.16710
C          2.93427        1.19859       -0.56901
C          4.48667        1.21438       -0.53957
C          5.15538        0.25112       -1.52874
C          6.73251        0.31066       -1.53632
O          7.24829       -0.07946       -0.43522
O          7.30211        0.46392       -2.65659
O          4.83532       -1.11525       -1.09390
C          4.79831        2.69543       -0.82441
O          4.79511        3.05616       -2.03652
O          4.88945        3.43168        0.20735
H          0.31880       -0.97434        0.14083
H          0.36668        0.28324       -1.10462
H          0.43977        0.73214        0.61383
H          2.51968       -0.90788       -0.89179
H          2.64804       -0.44506        0.81413
H          2.55938        1.97734        0.10838
H          2.58069        1.47771       -1.57186
H          4.81108        0.97235        0.48061
H          4.76308        0.36830       -2.54324
H          5.58451       -1.29086       -0.48305
22 22 22 22 22 22 22 22 22 22 22 22 22 22 22 22 22 22 22 22 22 22 22 22 22 22 22 22 22 22 22 22 22 22 22 22 22 22 22 22 22 22 22 22 22 22 22 22 22 22 22 22 22 22 22 22 22 22 22 22 22
CCCC(C(C([O-])=O)O)C([O-])=O
InChI=1S/C7H12O5/c1-2-3-4(6(9)10)5(8)7(11)12/h4-5,8H,2-3H2,1H3,(H,9,10)(H,11,12)/p-2/t4?,5-/m0/s1
