19
metacyc CPD-37  -581.88653648 -581.88653648 -581.88653648 -581.88653648 -581.88653648 -581.88653648 -581.88653648 -581.88653648 -581.88653648 -581.88653648 -581.88653648 -581.88653648 -581.88653648 -581.88653648 -581.88653648
C          0.91404        0.06848        0.04344
H          0.43600       -0.30419       -0.87517
O          0.24107        0.41276        1.01640
C          2.43569        0.08760        0.02699
O          2.93139        0.94732        1.04877
C          2.93927       -1.35327        0.22252
O          2.45296       -2.20553       -0.82304
C          4.46315       -1.44716        0.33416
C          5.12751       -0.96591       -0.93026
O          4.58136       -1.07259       -2.03502
C          6.54038       -0.38696       -0.86183
O          7.07180       -0.38997        0.29269
O          7.05955        0.03399       -1.94194
H          2.73119        0.49976       -0.94280
H          2.49174        0.68715        1.87824
H          2.51942       -1.74626        1.15825
H          3.03605       -2.03823       -1.60257
H          4.76845       -2.49010        0.47922
H          4.80973       -0.86218        1.19152
19 19 19 19 19 19 19 19 19 19 19 19 19 19 19 19 19 19 19 19 19 19 19 19 19 19 19 19 19 19 19 19 19 19 19 19 19 19 19 19 19 19 19 19 19 19 19 19 19 19 19 19
[CH](=O)C(O)C(O)CC(=O)C(=O)[O-]
InChI=1S/C6H8O6/c7-2-5(10)3(8)1-4(9)6(11)12/h2-3,5,8,10H,1H2,(H,11,12)/p-1/t3-,5-/m0/s1
