26
metacyc CPD-16697  -58.403610832 -58.403610832 -58.403610832 -58.403610832 -58.403610832 -58.403610832 -58.403610832 -58.403610832 -58.403610832 -58.403610832 -58.403610832 -58.403610832 -58.403610832 -58.403610832 -58.403610832
C          1.34130        0.33870        0.18040
N          2.72450        0.08401       -0.18919
C          3.14649       -1.23235       -0.33188
O          2.42015       -2.18661       -0.04197
N          4.45766       -1.42517       -0.76514
C          4.82398       -2.73965       -1.25335
C          5.45915       -0.45034       -0.70117
C          4.91297        0.93999       -0.99783
O          4.78799        1.01803       -2.41386
N          5.48201        2.17215       -0.54526
C          6.76000        2.66455       -0.99278
C          4.47322        3.05436       -0.20049
O          4.60724        4.25814       -0.07687
N          3.30344        2.36171        0.00103
C          3.56825        1.14800       -0.35517
O          6.66118       -0.69099       -0.61827
H          0.81276       -0.57078        0.47771
H          0.83872        0.76033       -0.69696
H          1.28934        1.06749        0.99353
H          4.14385       -3.52125       -0.90756
H          5.85529       -2.99668       -1.00765
H          4.73749       -2.68539       -2.34654
H          5.69651        0.92934       -2.75507
H          7.47997        1.84441       -1.00117
H          7.11059        3.44290       -0.31332
H          6.65174        3.09287       -1.99175
26 26 26 26 26 26 26 26 26 26 26 26 26 26 26 26 26 26 26 26 26 26 26 26 26 26 26 26 26 26 26 26 26 26 26 26 26 26 26 26 26 26 26 26 26 26 26 26 26 26 26 26 26 26 26 26 26 26 26 26 26 26 26 26 26 26 26 26 26 26 26 26 26
CN2(C(=O)N(C)C(C1(O)(N(C)C(=O)N=C12))=O)
InChI=1S/C8H10N4O4/c1-10-4-8(16,12(3)6(14)9-4)5(13)11(2)7(10)15/h16H,1-3H3
