27
metacyc CPD-8056  -257.375902328 -257.375902328 -257.375902328 -257.375902328 -257.375902328 -257.375902328 -257.375902328 -257.375902328 -257.375902328 -257.375902328 -257.375902328 -257.375902328 -257.375902328 -257.375902328 -257.375902328
C          1.04410        0.33123       -0.35542
O          2.23484       -0.19662        0.21328
C          2.93233       -1.14320       -0.61532
C          4.23390       -1.51178        0.13099
C          3.90330       -2.20328        1.47583
C          3.01658       -3.44637        1.26473
C          1.75743       -3.11023        0.44408
C          2.12260       -2.42362       -0.88586
O          2.89841       -3.34623       -1.67837
O          1.01461       -4.30542        0.16357
O          3.80350       -4.46792        0.61090
O          5.11106       -2.60186        2.13537
O          5.00351       -0.31796        0.33252
H          0.78053        1.23808        0.19654
H          0.22553       -0.38438       -0.23792
H          1.18058        0.58699       -1.40931
H          3.20267       -0.64883       -1.55703
H          4.86181       -2.16653       -0.48214
H          3.40762       -1.49458        2.14523
H          2.73372       -3.87787        2.23159
H          1.10174       -2.45991        1.03156
H          1.20639       -2.21364       -1.44819
H          3.09957       -2.90654       -2.52720
H          1.61126       -4.88756       -0.34238
H          3.73827       -4.32295       -0.35714
H          5.35909       -3.46094        1.74269
H          4.46253        0.26150        0.90139
27 27 27 27 27 27 27 27 27 27 27 27 27 27 27 27 27 27 27 27 27 27 27 27 27 27 27 27 27 27 27 27 27 27 27 27 27 27 27 27 27 27 27 27 27 27 27 27 27 27 27 27 27 27 27 27 27 27 27 27 27 27 27 27 27 27 27 27 27 27 27 27 27 27 27 27
COC1(C(C(C(C(C1O)O)O)O)O)
InChI=1S/C7H14O6/c1-13-7-5(11)3(9)2(8)4(10)6(7)12/h2-12H,1H3/t2-,3-,4-,5+,6+,7-/m0/s1
