18
metacyc CPD-6995  -208.734793592 -208.734793592 -208.734793592 -208.734793592 -208.734793592 -208.734793592 -208.734793592 -208.734793592 -208.734793592 -208.734793592 -208.734793592 -208.734793592 -208.734793592 -208.734793592 -208.734793592
C          1.04367        0.00345       -0.10932
C          0.48082       -0.90005        1.00035
C          0.93969       -0.45756        2.40489
C          0.37828       -1.36291        3.50898
O          0.83969       -0.90956        4.78216
O          2.37566       -0.44934        2.50379
O         -0.94434       -0.93350        0.92511
O          2.46305       -0.01821       -0.15980
H          0.71022        1.03948        0.02214
H          0.66410       -0.32456       -1.08285
H          0.84951       -1.91702        0.82196
H          0.60974        0.57006        2.59974
H          0.72581       -2.39319        3.38589
H         -0.71487       -1.35619        3.52217
H          1.77459       -0.65302        4.66326
H          2.68308       -1.36576        2.35959
H         -1.28043       -0.02214        0.99684
H          2.78735        0.24784        0.72522
18 18 18 18 18 18 18 18 18 18 18 18 18 18 18 18 18 18 18 18 18 18 18 18 18 18 18 18 18 18 18 18 18 18 18 18 18 18 18 18 18 18 18 18 18 18 18 18 18
C(C(C(CO)O)O)O
InChI=1S/C4H10O4/c5-1-3(7)4(8)2-6/h3-8H,1-2H2/t3-,4-/m0/s1
