18
metacyc CPD-10230  -210.412966704 -210.412966704 -210.412966704 -210.412966704 -210.412966704 -210.412966704 -210.412966704 -210.412966704 -210.412966704 -210.412966704 -210.412966704 -210.412966704 -210.412966704 -210.412966704 -210.412966704
C          0.91175        0.02978       -0.06492
O          0.36671        1.16561       -0.11636
O          0.38361       -1.11534        0.00601
C          2.46089        0.05215       -0.07583
C          3.11028        1.39701       -0.20061
C          4.61817        1.44579        0.06324
N          5.22042        2.43431       -0.84842
C          5.39666        0.12974       -0.03965
O          6.42144        0.11412        0.97893
C          4.58651       -1.16003        0.06594
O          5.13526       -2.25446        0.22368
C          3.11854       -1.10310        0.02639
H          2.64543        2.08463        0.51977
H          2.86754        1.79354       -1.19440
H          4.76814        1.86222        1.06724
H          5.92354        0.06712       -1.00233
H          5.99185       -0.20966        1.79561
H          2.60243       -2.06035        0.09985
18 18 18 18 18 18 18 18 18 18 18 18 18 18 18 18 18 18 18 18 18 18 18 18 18 18 18 18 18 18 18 18 18 18 18 18 18 18 18 18 18 18 18 18 18 18 18 18 18
C([O-])(=O)C1(CC([N+])C(O)C(=O)C=1)
InChI=1S/C7H9NO4/c8-4-1-3(7(11)12)2-5(9)6(4)10/h2,4,6,10H,1,8H2,(H,11,12)/t4-,6+/m1/s1
