18
metacyc CPD-18174  -228.408852784 -228.408852784 -228.408852784 -228.408852784 -228.408852784 -228.408852784 -228.408852784 -228.408852784 -228.408852784 -228.408852784 -228.408852784 -228.408852784 -228.408852784 -228.408852784 -228.408852784
C          1.01004       -0.13283       -0.03226
C          2.53959       -0.07069       -0.02779
O          2.99370       -1.25857       -0.67960
C          3.74249       -1.17195       -1.80377
C          4.21179       -0.07722       -2.40222
O          4.99017       -0.12491       -3.54242
C          3.93306        1.23958       -1.77967
O          4.46255        2.26028       -2.22171
C          3.02582        1.28616       -0.55918
O          3.64250        2.01508        0.51222
H          0.66321       -1.08261        0.38925
H          0.62047       -0.08011       -1.05507
H          0.57604        0.68463        0.55227
H          2.85327       -0.17313        1.01905
H          3.93476       -2.17032       -2.17959
H          5.13030       -1.05201       -3.79637
H          2.16204        1.89337       -0.85808
H          4.59239        1.79605        0.50777
18 18 18 18 18 18 18 18 18 18 18 18 18 18 18 18 18 18 18 18 18 18 18 18 18 18 18 18 18 18 18 18 18 18 18 18 18 18 18 18 18 18 18 18 18 18 18 18 18
CC1(OC=C(O)C(=O)C(O)1)
InChI=1S/C6H8O4/c1-3-5(8)6(9)4(7)2-10-3/h2-3,5,7-8H,1H3/t3-,5+/m1/s1
