29
metacyc CPD-15698  -93.44206696 -93.44206696 -93.44206696 -93.44206696 -93.44206696 -93.44206696 -93.44206696 -93.44206696 -93.44206696 -93.44206696 -93.44206696 -93.44206696 -93.44206696 -93.44206696 -93.44206696
C          0.94966        0.02998        0.15458
C          2.46569       -0.04143       -0.04564
C          2.97688       -1.43990       -0.42961
O          2.47552       -2.43017        0.46886
C          2.63790       -1.76857       -1.89714
C          3.11711       -0.64930       -2.84605
C          2.54528        0.69461       -2.32989
O          3.00537        1.78210       -3.11317
O          2.92017        0.94512       -0.98078
N          4.58906       -0.60820       -2.93902
C          5.41600       -1.29482       -3.77438
C          4.85040       -2.14720       -4.87953
O          6.62915       -1.17403       -3.62085
O          3.17301       -3.04568       -2.26076
H          0.63032       -0.60702        0.98527
H          0.39733       -0.28417       -0.73596
H          0.64351        1.05902        0.36913
H          2.91380        0.22390        0.91995
H          4.06819       -1.45521       -0.31762
H          1.76734       -2.92959        0.02455
H          1.55186       -1.87697       -1.99953
H          2.74271       -0.82595       -3.85876
H          1.45430        0.69449       -2.41631
H          3.95662        1.84717       -2.92473
H          5.09572       -0.09503       -2.22271
H          3.80848       -2.42398       -4.72474
H          5.42832       -3.07510       -4.93078
H          4.94020       -1.61349       -5.82940
H          4.10492       -3.07141       -1.97225
29 29 29 29 29 29 29 29 29 29 29 29 29 29 29 29 29 29 29 29 29 29 29 29 29 29 29 29 29 29 29 29 29 29 29 29 29 29 29 29 29 29 29 29 29 29 29 29 29 29 29 29 29 29 29 29 29 29 29 29 29 29 29 29 29 29 29 29 29 29 29 29 29 29 29 29 29 29 29 29 29 29
CC1(C(O)C(C(C(O)O1)NC(C)=O)O)
InChI=1S/C8H15NO5/c1-3-6(11)7(12)5(8(13)14-3)9-4(2)10/h3,5-8,11-13H,1-2H3,(H,9,10)/t3-,5+,6+,7-,8-/m0/s1
