12
metacyc CPD-809  -141.270266336 -141.270266336 -141.270266336 -141.270266336 -141.270266336 -141.270266336 -141.270266336 -141.270266336 -141.270266336 -141.270266336 -141.270266336 -141.270266336 -141.270266336 -141.270266336 -141.270266336
C          1.03721       -0.19877        0.07862
O          0.46443        0.74210       -0.46048
N          0.35338       -1.20786        0.65681
N          2.40125       -0.26884        0.11877
C          3.17919       -1.24651        0.67895
O          2.77001       -2.24921        1.25348
N          4.51261       -1.02207        0.55035
H         -0.65531       -1.19814        0.65124
H          0.84938       -1.97761        1.09786
H          2.85371        0.50940       -0.32715
H          4.91399       -0.22044        0.09103
H          5.13452       -1.71508        0.94744
12 12 12 12 12 12 12 12 12 12 12 12 12 12 12 12 12 12 12 12 12 12 12 12 12 12 12 12 12 12 12
C(=O)(N)NC(=O)N
InChI=1S/C2H5N3O2/c3-1(6)5-2(4)7/h(H5,3,4,5,6,7)
