30
metacyc CPD-17176  -86.04575912 -86.04575912 -86.04575912 -86.04575912 -86.04575912 -86.04575912 -86.04575912 -86.04575912 -86.04575912 -86.04575912 -86.04575912 -86.04575912 -86.04575912 -86.04575912 -86.04575912
C         -1.13610        0.60536       -0.34424
C         -1.21238       -0.72538       -0.40828
C          0.04256       -1.44509       -0.11769
N          0.03985       -2.80796       -0.02349
N          1.17258       -0.84159        0.06396
C          1.23957        0.52789       -0.02030
N          0.04077        1.26018       -0.02424
C          0.09902        2.72980       -0.06824
O         -1.20613        3.31736        0.19393
C         -1.65589        3.18624        1.55684
C         -0.70030        3.82549        2.56262
O         -0.79822        5.25491        2.47839
C          0.73028        3.33179        2.30522
O          1.64682        4.04867        3.13834
C          1.12152        3.48405        0.83130
O          1.12538        4.90232        0.50867
O          2.32894        1.08816       -0.07460
H         -2.01629        1.20882       -0.55337
H         -2.10669       -1.26843       -0.66897
H         -0.80129       -3.25542        0.31811
H          0.88916       -3.16661        0.40408
H          0.32403        2.98450       -1.11316
H         -1.80941        2.13054        1.79595
H         -2.63143        3.68163        1.60615
H         -0.99856        3.57465        3.58558
H         -0.76451        5.50174        1.53751
H          0.79921        2.27516        2.58798
H          1.60147        4.97494        2.82570
H          2.15433        3.16588        0.68638
H          0.46383        5.05569       -0.18930
30 30 30 30 30 30 30 30 30 30 30 30 30 30 30 30 30 30 30 30 30 30 30 30 30 30 30 30 30 30 30 30 30 30 30 30 30 30 30 30 30 30 30 30 30 30 30 30 30 30 30 30 30 30 30 30 30 30 30 30 30 30 30 30 30 30 30 30 30 30 30 30 30 30 30 30 30 30 30 30 30 30 30 30 30
C2(=CC(N)=NC(N(C1(OCC(O)C(O)C(O)1))2)=O)
InChI=1S/C9H13N3O5/c10-5-1-2-12(9(16)11-5)8-7(15)6(14)4(13)3-17-8/h1-2,4,6-8,13-15H,3H2,(H2,10,11,16)/t4-,6+,7-,8-/m1/s1
