15
metacyc CPD-19393  -42.021568864 -42.021568864 -42.021568864 -42.021568864 -42.021568864 -42.021568864 -42.021568864 -42.021568864 -42.021568864 -42.021568864 -42.021568864 -42.021568864 -42.021568864 -42.021568864 -42.021568864
C         -2.35069       -0.04188       -0.00004
N         -1.57320        1.09241       -0.00008
C         -0.26668        0.70070       -0.00018
C          0.89165        1.44093       -0.00019
C          2.09200        0.72414       -0.00023
C          2.09238       -0.68696       -0.00029
C          0.89146       -1.40525       -0.00030
C         -0.27826       -0.67818       -0.00024
O         -1.56160       -1.19973       -0.00018
O         -3.57308       -0.04915        0.00011
H         -1.94442        2.02745        0.00002
H          0.88378        2.52402       -0.00015
H          3.04001        1.25850       -0.00021
H          3.03981       -1.22241       -0.00030
H          0.88123       -2.48914       -0.00033
15 15 15 15 15 15 15 15 15 15 15 15 15 15 15 15 15 15 15 15 15 15 15 15 15 15 15 15 15 15 15 15 15 15 15 15 15 15 15 15
C2(NC1(C=CC=CC=1O2))(=O)
InChI=1S/C7H5NO2/c9-7-8-5-3-1-2-4-6(5)10-7/h1-4H,(H,8,9)
