23
metacyc CPD-12538  -165.462066472 -165.462066472 -165.462066472 -165.462066472 -165.462066472 -165.462066472 -165.462066472 -165.462066472 -165.462066472 -165.462066472 -165.462066472 -165.462066472 -165.462066472 -165.462066472 -165.462066472
C          0.79463        0.17311        0.16416
O          0.42449        1.52919        0.42024
C          2.31946        0.05889       -0.01141
C          2.79188       -1.37539       -0.28585
O          2.16591       -2.29932        0.60618
C          2.49481       -1.79041       -1.73367
O          3.01270       -3.11039       -1.96108
C          3.03271       -0.77045       -2.73775
N          4.50342       -0.77580       -2.73319
C          2.49644        0.62080       -2.35706
O          3.02258        1.62759       -3.20806
O          2.79467        0.98106       -1.01039
H          0.25544       -0.14588       -0.73141
H          0.44568       -0.43467        1.00436
H          1.02695        2.09135       -0.09930
H          2.76739        0.39561        0.93211
H          3.87223       -1.44521       -0.10660
H          2.20463       -3.17575        0.17747
H          1.41047       -1.88690       -1.86410
H          3.98547       -3.04007       -2.01131
H          2.72402       -1.03294       -3.75567
H          1.41074        0.64766       -2.49705
H          3.99019        1.52380       -3.16726
23 23 23 23 23 23 23 23 23 23 23 23 23 23 23 23 23 23 23 23 23 23 23 23 23 23 23 23 23 23 23 23 23 23 23 23 23 23 23 23 23 23 23 23 23 23 23 23 23 23 23 23 23 23 23 23 23 23 23 23 23 23 23 23
C(O)C1(C(O)C(O)C([N+])C(O)O1)
InChI=1S/C6H13NO5/c7-3-5(10)4(9)2(1-8)12-6(3)11/h2-6,8-11H,1,7H2/p+1/t2-,3-,4-,5-,6+/m1/s1
