22
metacyc CPD-15592  -13.8757690656 -13.8757690656 -13.8757690656 -13.8757690656 -13.8757690656 -13.8757690656 -13.8757690656 -13.8757690656 -13.8757690656 -13.8757690656 -13.8757690656 -13.8757690656 -13.8757690656 -13.8757690656 -13.8757690656
C          0.93300        0.12090        0.11281
C          2.45301        0.10014       -0.05994
O          2.91261       -1.21018       -0.43174
C          2.56513       -1.62663       -1.74952
O          3.11121       -2.92098       -1.96224
C          3.12052       -0.65380       -2.80306
O          4.56360       -0.72322       -2.81577
C          2.65750        0.77397       -2.48932
O          3.23741        1.69997       -3.41471
C          2.95713        1.18125       -1.03536
N          4.40426        1.35082       -0.83597
H          0.62020       -0.66901        0.80402
H          0.40093       -0.05406       -0.82645
H          0.60113        1.08441        0.51255
H          2.87777        0.29325        0.93379
H          1.47820       -1.71821       -1.83314
H          4.02203       -2.77243       -2.27766
H          2.80720       -0.95159       -3.80919
H          4.86647       -0.55323       -1.89975
H          1.57418        0.83065       -2.64791
H          4.18542        1.46372       -3.47774
H          2.49400        2.14991       -0.81773
22 22 22 22 22 22 22 22 22 22 22 22 22 22 22 22 22 22 22 22 22 22 22 22 22 22 22 22 22 22 22 22 22 22 22 22 22 22 22 22 22 22 22 22 22 22 22 22 22 22 22 22 22 22 22 22 22 22 22 22 22
CC1(OC(O)C(O)C(O)C([N+])1)
InChI=1S/C6H13NO4/c1-2-3(7)4(8)5(9)6(10)11-2/h2-6,8-10H,7H2,1H3/p+1/t2-,3-,4+,5-,6?/m1/s1
