20
metacyc CPD-721  -356.70365648 -356.70365648 -356.70365648 -356.70365648 -356.70365648 -356.70365648 -356.70365648 -356.70365648 -356.70365648 -356.70365648 -356.70365648 -356.70365648 -356.70365648 -356.70365648 -356.70365648
C          3.08999       -1.05046       -0.49603
O          2.59259        0.18536        0.01364
C          3.16004        0.57730        1.20144
C          3.07780        1.93828        1.49521
C          3.63691        2.45396        2.66046
C          4.28547        1.61823        3.55938
C          4.36971        0.23799        3.29895
C          3.78711       -0.26784        2.11693
C          5.07861       -0.70227        4.25399
O          5.60106       -0.19304        5.29399
O          5.10182       -1.93323        3.93467
O          3.55457        3.79536        2.91208
O          2.46349        2.80561        0.62334
H          2.66227       -1.19645       -1.49228
H          2.77372       -1.89620        0.12271
H          4.18033       -1.02073       -0.60201
H          4.73289        2.02355        4.46424
H          3.84720       -1.34095        1.95617
H          3.06872        4.14620        2.14107
H          2.16651        2.22333       -0.10401
20 20 20 20 20 20 20 20 20 20 20 20 20 20 20 20 20 20 20 20 20 20 20 20 20 20 20 20 20 20 20 20 20 20 20 20 20 20 20 20 20 20 20 20 20 20 20 20 20 20 20 20 20 20 20
COC1(=C(C(=CC(=C1)C([O-])=O)O)O)
InChI=1S/C8H8O5/c1-13-6-3-4(8(11)12)2-5(9)7(6)10/h2-3,9-10H,1H3,(H,11,12)/p-1
