22
metacyc CPD-15507  -133.69172856 -133.69172856 -133.69172856 -133.69172856 -133.69172856 -133.69172856 -133.69172856 -133.69172856 -133.69172856 -133.69172856 -133.69172856 -133.69172856 -133.69172856 -133.69172856 -133.69172856
C         -0.11379       -3.42583        2.37070
C          0.36423       -2.39759        1.29904
C         -0.71234       -1.32733        1.12373
O         -0.66495       -0.23817        1.70519
C         -1.76412       -1.51256        0.07617
C         -2.12885       -2.76547       -0.42372
C         -3.04771       -2.87095       -1.47114
C         -3.59557       -1.71863       -2.02394
O         -4.45516       -1.78440       -3.07982
C         -3.26945       -0.46586       -1.52236
C         -2.35868       -0.36223       -0.46878
N          1.64231       -1.72386        1.76815
O          0.23414       -3.16462        3.56018
O         -0.75158       -4.42178        1.92185
H          0.58874       -2.87897        0.34294
H         -1.71462       -3.68202       -0.01583
H         -3.31155       -3.85965       -1.83346
H         -4.49254       -2.71019       -3.37174
H         -3.70611        0.42888       -1.95547
H         -2.08916        0.62158       -0.09017
H          1.63375       -1.93779        2.78291
H          1.44287       -0.71930        1.76324
22 22 22 22 22 22 22 22 22 22 22 22 22 22 22 22 22 22 22 22 22 22 22 22 22 22 22 22 22 22 22 22 22 22 22 22 22 22 22 22 22 22 22 22 22 22 22 22 22 22 22 22 22 22 22 22 22 22 22 22 22
C(C(C(=O)C1(C=CC(O)=CC=1))N)(=O)[O-]
InChI=1S/C9H9NO4/c10-7(9(13)14)8(12)5-1-3-6(11)4-2-5/h1-4,7,11H,10H2,(H,13,14)/p-1/t7-/m0/s1
