16
metacyc CPD-146  -383.17975744 -383.17975744 -383.17975744 -383.17975744 -383.17975744 -383.17975744 -383.17975744 -383.17975744 -383.17975744 -383.17975744 -383.17975744 -383.17975744 -383.17975744 -383.17975744 -383.17975744
C          0.98717       -0.07251       -0.15728
O          0.39105       -1.09380        0.63775
C          2.51170       -0.04150        0.01071
O          2.83582        0.23956        1.38028
N          2.92890        1.61799        1.67373
O          2.64123        2.40893        0.77551
O          3.24735        1.83526        2.84119
C          3.13425       -1.40145       -0.32572
O          4.56119       -1.31179       -0.29511
H          0.52861        0.87840        0.13037
H          0.72630       -0.27259       -1.20121
H          0.43045       -0.81152        1.56960
H          2.96069        0.69506       -0.66880
H          2.83770       -1.74342       -1.32287
H          2.84924       -2.16309        0.40672
H          4.85243       -0.80220       -1.07084
16 16 16 16 16 16 16 16 16 16 16 16 16 16 16 16 16 16 16 16 16 16 16 16 16 16 16 16 16 16 16 16 16 16 16 16 16 16 16 16 16 16 16
C(O)C(O[N+]([O-])=O)CO
InChI=1S/C3H7NO5/c5-1-3(2-6)9-4(7)8/h3,5-6H,1-2H2
