17
metacyc CPD-16449  -180.00003136 -180.00003136 -180.00003136 -180.00003136 -180.00003136 -180.00003136 -180.00003136 -180.00003136 -180.00003136 -180.00003136 -180.00003136 -180.00003136 -180.00003136 -180.00003136 -180.00003136
C          1.25885        0.02180        1.47047
O          2.11769        0.36029        2.26863
O          0.47081       -1.10662        1.53799
N         -0.40462       -1.04658        0.44370
C         -0.82693       -2.34596       -0.08866
C         -2.33907       -2.51494       -0.06519
C         -3.06099       -1.62134       -1.08894
O         -2.42807       -1.33899       -2.14771
O         -4.22423       -1.24596       -0.74631
N         -2.67134       -3.90336       -0.42313
C         -0.04098        0.01606       -0.33298
C          0.92682        0.73895        0.22634
H         -0.37712       -3.13180        0.53591
H         -0.40904       -2.49481       -1.09245
H         -2.72746       -2.31251        0.93978
H         -0.51272        0.16729       -1.29652
H          1.43059        1.61237       -0.13790
17 17 17 17 17 17 17 17 17 17 17 17 17 17 17 17 17 17 17 17 17 17 17 17 17 17 17 17 17 17 17 17 17 17 17 17 17 17 17 17 17 17 17 17 17 17
C1(=O)(ON(CC(C([O-])=O)[N+])C=C1)
InChI=1S/C6H8N2O4/c7-4(6(10)11)3-8-2-1-5(9)12-8/h1-2,4H,3,7H2,(H,10,11)/t4-/m0/s1
