21
metacyc CPD-17572  -607.5697276 -607.5697276 -607.5697276 -607.5697276 -607.5697276 -607.5697276 -607.5697276 -607.5697276 -607.5697276 -607.5697276 -607.5697276 -607.5697276 -607.5697276 -607.5697276 -607.5697276
C          0.65418        1.30597       -0.14105
C         -0.81462        1.24794        0.21706
N         -1.40256        2.33273        0.94928
O         -2.51971        2.12145        1.42284
O         -0.73156        3.36190        1.06080
C         -1.48615       -0.02299       -0.13565
C         -0.78524       -1.28097        0.20464
C          0.68998       -1.30114       -0.13347
C          1.39263        0.01372        0.25756
N          1.59276        0.02405        1.75783
O          2.75219        0.09343        2.17199
O          0.56888       -0.03236        2.44970
N         -1.35699       -2.39539        0.90664
O         -2.45724       -2.20042        1.42257
O         -0.68763       -3.43101        0.95011
O         -2.44054       -0.03118       -0.88404
H          1.15670        2.17547        0.29288
H          0.70432        1.41662       -1.23187
H          0.75201       -1.42004       -1.22175
H          1.20767       -2.15139        0.31782
H          2.39962        0.02488       -0.17560
21 21 21 21 21 21 21 21 21 21 21 21 21 21 21 21 21 21 21 21 21 21 21 21 21 21 21 21 21 21 21 21 21 21 21 21 21 21 21 21 21 21 21 21 21 21 21 21 21 21 21 21 21 21 21 21 21 21
C1(C(=N([O-])=O)C(C(CC1[N+](=O)[O-])=N(=O)[O-])=O)
InChI=1S/C6H5N3O7/c10-6-4(8(13)14)1-3(7(11)12)2-5(6)9(15)16/h3H,1-2H2/q-2
