18
metacyc CPD-9435  -168.15931136 -168.15931136 -168.15931136 -168.15931136 -168.15931136 -168.15931136 -168.15931136 -168.15931136 -168.15931136 -168.15931136 -168.15931136 -168.15931136 -168.15931136 -168.15931136 -168.15931136
C          0.98615       -1.09042        0.06196
C         -0.47311       -1.40380       -0.02123
C         -1.44609       -0.48578       -0.07566
C         -1.06407        0.93615       -0.00582
O         -1.94613        1.77727        0.18432
C          0.44944        1.26560       -0.07270
O          1.31975        0.20022       -0.40778
O          0.91674        1.89566        1.11951
C          0.60547        2.29903       -1.21747
O          1.95653        2.77925       -1.31663
H          1.52573       -1.79033       -0.58374
H          1.35677       -1.23383        1.08153
H         -0.74127       -2.45943       -0.02394
H         -2.49853       -0.73077       -0.10811
H          0.40184        1.53215        1.85867
H         -0.03196        3.17378       -1.06067
H          0.34934        1.84385       -2.17955
H          2.30547        2.73548       -0.40460
18 18 18 18 18 18 18 18 18 18 18 18 18 18 18 18 18 18 18 18 18 18 18 18 18 18 18 18 18 18 18 18 18 18 18 18 18 18 18 18 18 18 18 18 18 18 18 18 18
C1(C=CC(=O)C(O1)(O)CO)
InChI=1S/C6H8O4/c7-4-6(9)5(8)2-1-3-10-6/h1-2,7,9H,3-4H2
