29
metacyc CPD-15612  -93.44206696 -93.44206696 -93.44206696 -93.44206696 -93.44206696 -93.44206696 -93.44206696 -93.44206696 -93.44206696 -93.44206696 -93.44206696 -93.44206696 -93.44206696 -93.44206696 -93.44206696
C          0.89525        0.30022        0.05339
C          2.41454        0.15783       -0.08424
C          2.89026       -1.29965       -0.32202
N          2.35029       -2.26721        0.63575
C          2.64083       -2.17892        1.97865
O          3.30117       -1.26858        2.47035
C          2.04350       -3.27168        2.82068
C          2.56706       -1.72641       -1.76904
O          3.15425       -3.01158       -2.02851
C          3.09195       -0.69892       -2.77591
O          4.53932       -0.69896       -2.73266
C          2.56354        0.70012       -2.42969
O          3.13548        1.66253       -3.30418
O          2.93035        1.04134       -1.09809
H          0.51753       -0.26933        0.90774
H          0.36083       -0.04296       -0.83720
H          0.62625        1.35186        0.19768
H          2.84889        0.52009        0.85363
H          3.98090       -1.33298       -0.19318
H          2.15513       -3.19295        0.26560
H          1.53992       -4.02646        2.21139
H          1.31058       -2.82666        3.50003
H          2.83514       -3.75571        3.39827
H          1.48483       -1.84784       -1.89214
H          4.07139       -2.83582       -2.32463
H          2.82629       -0.98042       -3.80059
H          4.80410       -0.11845       -1.98944
H          1.47839        0.76024       -2.55243
H          4.04527        1.36690       -3.48433
29 29 29 29 29 29 29 29 29 29 29 29 29 29 29 29 29 29 29 29 29 29 29 29 29 29 29 29 29 29 29 29 29 29 29 29 29 29 29 29 29 29 29 29 29 29 29 29 29 29 29 29 29 29 29 29 29 29 29 29 29 29 29 29 29 29 29 29 29 29 29 29 29 29 29 29 29 29 29 29 29 29
CC1(C(NC(=O)C)C(O)C(O)C(O)O1)
InChI=1S/C8H15NO5/c1-3-5(9-4(2)10)6(11)7(12)8(13)14-3/h3,5-8,11-13H,1-2H3,(H,9,10)/t3-,5-,6+,7+,8+/m1/s1
