22
metacyc CPD-2222  -140.799809008 -140.799809008 -140.799809008 -140.799809008 -140.799809008 -140.799809008 -140.799809008 -140.799809008 -140.799809008 -140.799809008 -140.799809008 -140.799809008 -140.799809008 -140.799809008 -140.799809008
C         -0.84353        1.00689       -0.19982
C          0.54998        1.14922       -0.14457
C          1.17828        2.52873       -0.17811
C          1.35423        3.14914        1.20498
C          2.13791        4.48635        1.03180
O          3.28795        4.40810        0.51885
O          1.49688        5.49994        1.45425
O          0.06225        3.44043        1.80130
C          1.34800        0.00070       -0.05134
C          0.76359       -1.26867       -0.03573
C         -0.62184       -1.38712       -0.10879
C         -1.42869       -0.25938       -0.18718
O         -1.23022       -2.60940       -0.10206
H         -1.47404        1.89269       -0.23909
H          0.55092        3.17818       -0.80326
H          2.14053        2.45194       -0.70060
H          1.90280        2.49421        1.89010
H          0.12190        4.41959        1.93585
H          2.42966        0.09809        0.01005
H          1.40270       -2.14179        0.03425
H         -2.50841       -0.35943       -0.23026
H         -0.53820       -3.28250       -0.00577
22 22 22 22 22 22 22 22 22 22 22 22 22 22 22 22 22 22 22 22 22 22 22 22 22 22 22 22 22 22 22 22 22 22 22 22 22 22 22 22 22 22 22 22 22 22 22 22 22 22 22 22 22 22 22 22 22 22 22 22 22
C1(C(CC(C([O-])=O)O)=CC=C(C=1)O)
InChI=1S/C9H10O4/c10-7-3-1-6(2-4-7)5-8(11)9(12)13/h1-4,8,10-11H,5H2,(H,12,13)/p-1/t8-/m1/s1
