25
metacyc CPD-16886  -109.470699 -109.470699 -109.470699 -109.470699 -109.470699 -109.470699 -109.470699 -109.470699 -109.470699 -109.470699 -109.470699 -109.470699 -109.470699 -109.470699 -109.470699
C          0.77007        0.04201        0.10723
O          0.14175       -0.79995       -0.84739
C          2.30485        0.06286       -0.02205
O          2.83729        1.02496        0.88336
C          2.93040       -1.33566        0.20390
O          2.42106       -2.22595       -0.81051
C          4.48232       -1.39305        0.14947
O          4.90933       -0.94789       -1.15400
C          5.23160       -0.64138        1.27481
N          4.78530       -1.10364        2.58719
C          6.75524       -0.81722        1.17149
O          7.27043       -0.22769       -0.02126
H          0.47248       -0.27851        1.11184
H          0.37622        1.05612       -0.02345
H          0.64748       -1.64015       -0.87201
H          2.54305        0.39208       -1.04162
H          2.50988        0.82169        1.77938
H          2.59051       -1.73193        1.16663
H          3.00827       -2.11558       -1.58833
H          4.76854       -2.45420        0.18869
H          4.78366        0.02297       -1.18987
H          5.04982        0.43213        1.18220
H          7.04868       -1.87208        1.19170
H          7.25019       -0.31621        2.01156
H          6.84837       -0.68981       -0.77368
25 25 25 25 25 25 25 25 25 25 25 25 25 25 25 25 25 25 25 25 25 25 25 25 25 25 25 25 25 25 25 25 25 25 25 25 25 25 25 25 25 25 25 25 25 25 25 25 25 25 25 25 25 25 25 25 25 25 25 25 25 25 25 25 25 25 25 25 25 25
C(O)C(O)C(O)C(O)C([N+])CO
InChI=1S/C6H15NO5/c7-3(1-8)5(11)6(12)4(10)2-9/h3-6,8-12H,1-2,7H2/p+1/t3-,4-,5-,6-/m1/s1
