23
metacyc CPD-15587  -246.00480704 -246.00480704 -246.00480704 -246.00480704 -246.00480704 -246.00480704 -246.00480704 -246.00480704 -246.00480704 -246.00480704 -246.00480704 -246.00480704 -246.00480704 -246.00480704 -246.00480704
C          1.07306       -0.01350        0.11982
C          2.58371       -0.09771       -0.07823
O          2.99775       -1.42140       -0.44481
C          2.62982       -1.82971       -1.76161
O          3.18157       -3.12099       -1.98593
C          3.14512       -0.86173       -2.84751
O          4.58749       -0.96413       -2.92201
C          2.71766        0.57269       -2.50881
O          3.30520        1.49591       -3.43191
C          3.13993        0.93277       -1.07574
O          4.58525        0.90593       -1.02828
H          0.74369       -0.77928        0.83157
H          0.51700       -0.18989       -0.80387
H          0.78428        0.96759        0.50782
H          3.04985        0.08595        0.89747
H          1.54125       -1.92888       -1.81587
H          4.08723       -2.94667       -2.30813
H          2.78227       -1.16038       -3.83494
H          4.93564       -0.49476       -2.13234
H          1.63098        0.66573       -2.61587
H          4.27235        1.37748       -3.33936
H          2.83269        1.95327       -0.82353
H          4.84957        0.93070       -0.08975
23 23 23 23 23 23 23 23 23 23 23 23 23 23 23 23 23 23 23 23 23 23 23 23 23 23 23 23 23 23 23 23 23 23 23 23 23 23 23 23 23 23 23 23 23 23 23 23 23 23 23 23 23 23 23 23 23 23 23 23 23 23 23 23
CC1(OC(O)C(O)C(O)C(O)1)
InChI=1S/C6H12O5/c1-2-3(7)4(8)5(9)6(10)11-2/h2-10H,1H3/t2-,3+,4+,5+,6?/m1/s1
