19
metacyc CPD-18691  -25.98697044 -25.98697044 -25.98697044 -25.98697044 -25.98697044 -25.98697044 -25.98697044 -25.98697044 -25.98697044 -25.98697044 -25.98697044 -25.98697044 -25.98697044 -25.98697044 -25.98697044
C          1.08020        0.36578        0.23433
O          2.50758        0.35506        0.18826
C          3.02726        0.94411       -0.91804
O          2.38649        1.47393       -1.81259
C          4.51145        0.83802       -0.92319
C          5.20409        1.30948       -2.04920
C          6.59580        1.20561       -2.11970
C          7.29129        0.63201       -1.06020
O          8.64650        0.49226       -1.09351
C          6.62208        0.17534        0.06979
C          5.23047        0.27605        0.14119
H          0.76721       -0.14848        1.14719
H          0.66483       -0.17069       -0.62370
H          0.70479        1.39393        0.26873
H          4.65821        1.75396       -2.87984
H          7.11165        1.57232       -3.00164
H          8.96992        0.78639       -1.96111
H          7.18153       -0.26520        0.89084
H          4.72271       -0.09186        1.02911
19 19 19 19 19 19 19 19 19 19 19 19 19 19 19 19 19 19 19 19 19 19 19 19 19 19 19 19 19 19 19 19 19 19 19 19 19 19 19 19 19 19 19 19 19 19 19 19 19 19 19 19
COC(=O)C1(C=CC(O)=CC=1)
InChI=1S/C8H8O3/c1-11-8(10)6-2-4-7(9)5-3-6/h2-5,9H,1H3
