22
metacyc CPD-17656  -86.28232248 -86.28232248 -86.28232248 -86.28232248 -86.28232248 -86.28232248 -86.28232248 -86.28232248 -86.28232248 -86.28232248 -86.28232248 -86.28232248 -86.28232248 -86.28232248 -86.28232248
C          2.41620        1.34476        0.68229
O          2.43373        0.01932        0.16593
C          3.15142       -0.91418        0.87225
C          4.17628       -0.56015        1.76630
C          4.88273       -1.53334        2.47440
C          4.56632       -2.87257        2.30884
C          3.57033       -3.23815        1.40544
C          2.86110       -2.27762        0.65195
C          1.85423       -2.82421       -0.36500
C          0.70026       -3.58228        0.37155
O         -0.25208       -2.88084        0.81517
O          0.84876       -4.84670        0.45235
O          1.33742       -1.82513       -1.27026
H          1.73334        1.93919        0.06630
H          3.40158        1.81649        0.61081
H          2.04284        1.36450        1.71188
H          4.46063        0.47344        1.92265
H          5.67492       -1.24093        3.15643
H          5.08980       -3.63994        2.86995
H          3.32881       -4.29496        1.28463
H          2.38653       -3.53535       -1.01087
H          1.12572       -1.07468       -0.68321
22 22 22 22 22 22 22 22 22 22 22 22 22 22 22 22 22 22 22 22 22 22 22 22 22 22 22 22 22 22 22 22 22 22 22 22 22 22 22 22 22 22 22 22 22 22 22 22 22 22 22 22 22 22 22 22 22 22 22 22 22
COC1(=CC=CC=C1C(C(=O)[O-])O)
InChI=1S/C9H10O4/c1-13-7-5-3-2-4-6(7)8(10)9(11)12/h2-5,8,10H,1H3,(H,11,12)/p-1
