13
metacyc CPD-13148  -240.109622168 -240.109622168 -240.109622168 -240.109622168 -240.109622168 -240.109622168 -240.109622168 -240.109622168 -240.109622168 -240.109622168 -240.109622168 -240.109622168 -240.109622168 -240.109622168 -240.109622168
C         -1.20426        0.00794        0.00336
C         -0.35301        1.14313       -0.00011
C          0.94999        0.68738        0.00090
O          2.11305        1.32467       -0.00084
N          0.91084       -0.68046        0.00450
C         -0.39055       -1.10368        0.00643
C         -0.77244       -2.52061        0.01111
O          0.20044       -3.33503        0.01316
O         -2.00972       -2.78765        0.01269
H         -2.28649       -0.01851        0.00384
H         -0.66927        2.17566       -0.00288
H          1.89969        2.27252       -0.00243
H          1.69705       -1.31700        0.00601
13 13 13 13 13 13 13 13 13 13 13 13 13 13 13 13 13 13 13 13 13 13 13 13 13 13 13 13 13 13 13 13 13 13
C1(C=C(O)NC(C(=O)[O-])=1)
InChI=1S/C5H5NO3/c7-4-2-1-3(6-4)5(8)9/h1-2,6-7H,(H,8,9)/p-1
