19
metacyc CPD-2462  -289.28811968 -289.28811968 -289.28811968 -289.28811968 -289.28811968 -289.28811968 -289.28811968 -289.28811968 -289.28811968 -289.28811968 -289.28811968 -289.28811968 -289.28811968 -289.28811968 -289.28811968
C          3.54518        0.06746       -0.93012
O          4.39208       -0.87900       -0.91143
O          3.61703        1.10826       -1.67011
C          2.46715        0.11464        0.14583
C          1.18774       -0.50477       -0.39822
O          1.19667       -1.70272       -0.81211
O          0.14554        0.22802       -0.28354
C          2.92155       -0.38268        1.50999
C          3.45389        0.53241        2.43452
C          3.93511        0.10686        3.67493
C          3.89393       -1.24499        4.00995
C          3.37274       -2.16863        3.10445
C          2.89616       -1.73769        1.86339
H          2.22799        1.18215        0.28068
H          3.50837        1.58463        2.16505
H          4.35474        0.83199        4.36287
H          4.28285       -1.58267        4.96399
H          3.34684       -3.22706        3.34342
H          2.52652       -2.46783        1.14335
19 19 19 19 19 19 19 19 19 19 19 19 19 19 19 19 19 19 19 19 19 19 19 19 19 19 19 19 19 19 19 19 19 19 19 19 19 19 19 19 19 19 19 19 19 19 19 19 19 19 19 19
C(=O)([O-])C(C([O-])=O)C1(C=CC=CC=1)
InChI=1S/C9H8O4/c10-8(11)7(9(12)13)6-4-2-1-3-5-6/h1-5,7H,(H,10,11)(H,12,13)/p-2
