17
metacyc CPD-185  -900.66951312 -900.66951312 -900.66951312 -900.66951312 -900.66951312 -900.66951312 -900.66951312 -900.66951312 -900.66951312 -900.66951312 -900.66951312 -900.66951312 -900.66951312 -900.66951312 -900.66951312
C         -0.17133       -0.14049        0.08396
C         -0.00279       -1.55093       -0.52141
C          1.05901       -2.32449       -0.88645
C          2.41895       -1.80505       -0.80576
C          3.69430       -2.23470       -0.70214
C          4.34408       -3.70054       -0.58245
O          5.50899       -3.80866       -1.10647
O          3.76339       -4.52466        0.18119
O          4.67851       -1.20459       -0.61565
C          0.71076       -3.65730       -1.62666
O         -0.35486       -4.25355       -1.24725
O          1.39806       -3.93207       -2.65917
O         -1.33741        0.09810        0.54220
O          0.79290        0.67461        0.01459
H         -0.99247       -1.99032       -0.67814
H          2.33986       -0.72222       -0.85154
H          4.18454       -0.37318       -0.54277
17 17 17 17 17 17 17 17 17 17 17 17 17 17 17 17 17 17 17 17 17 17 17 17 17 17 17 17 17 17 17 17 17 17 17 17 17 17 17 17 17 17 17 17 17 17
C(C=C(C=C(C([O-])=O)O)C([O-])=O)([O-])=O
InChI=1S/C7H6O7/c8-4(7(13)14)1-3(6(11)12)2-5(9)10/h1-2,8H,(H,9,10)(H,11,12)(H,13,14)/p-3/b3-2-,4-1-
