18
metacyc CPD-13357  -288.997147584 -288.997147584 -288.997147584 -288.997147584 -288.997147584 -288.997147584 -288.997147584 -288.997147584 -288.997147584 -288.997147584 -288.997147584 -288.997147584 -288.997147584 -288.997147584 -288.997147584
C          0.93880       -0.00751        0.11614
C          2.47182       -0.10541        0.14023
C          2.94022       -0.26907        1.58946
O          2.81450       -1.30847       -0.56819
C          3.08298        1.13055       -0.54982
O          2.61749        2.36348        0.06312
C          4.64127        1.13044       -0.54619
O          5.19662        0.01238       -0.74517
O          5.14350        2.28257       -0.34496
H          0.48011       -0.91539        0.52449
H          0.57314        0.08693       -0.91283
H          0.57388        0.84951        0.69140
H          2.48809       -1.15929        2.04245
H          2.68514        0.60026        2.20247
H          4.02257       -0.42735        1.64430
H          3.79672       -1.25475       -0.67779
H          2.77878        1.16181       -1.60388
H          3.44952        2.89884        0.08834
18 18 18 18 18 18 18 18 18 18 18 18 18 18 18 18 18 18 18 18 18 18 18 18 18 18 18 18 18 18 18 18 18 18 18 18 18 18 18 18 18 18 18 18 18 18 18 18 18
CC(C)(O)C(O)C(=O)[O-]
InChI=1S/C5H10O4/c1-5(2,9)3(6)4(7)8/h3,6,9H,1-2H3,(H,7,8)/p-1/t3-/m0/s1
