19
metacyc CPD-9133  -157.24844352 -157.24844352 -157.24844352 -157.24844352 -157.24844352 -157.24844352 -157.24844352 -157.24844352 -157.24844352 -157.24844352 -157.24844352 -157.24844352 -157.24844352 -157.24844352 -157.24844352
C          0.91014       -0.07202       -0.14812
C          2.41310       -0.07551       -0.06467
C          3.17605        1.10210        0.04771
N          2.54693        2.41176       -0.03027
O          1.91862        2.67612       -1.06269
O          2.70857        3.17092        0.93431
C          4.57320        1.08349        0.21094
C          5.25092       -0.13367        0.23982
C          4.54041       -1.32110        0.08064
C          3.14460       -1.27995       -0.08220
N          2.47138       -2.55259       -0.29925
O          1.84969       -2.68829       -1.35940
O          2.59097       -3.40834        0.58713
H          0.47239        0.87798        0.17151
H          0.49219       -0.82790        0.52666
H          0.58123       -0.27592       -1.17088
H          5.13355        2.01236        0.31103
H          6.33130       -0.15558        0.36981
H          5.07270       -2.27135        0.08028
19 19 19 19 19 19 19 19 19 19 19 19 19 19 19 19 19 19 19 19 19 19 19 19 19 19 19 19 19 19 19 19 19 19 19 19 19 19 19 19 19 19 19 19 19 19 19 19 19 19 19 19
CC1(=C([N+]([O-])=O)C=CC=C1[N+](=O)[O-])
InChI=1S/C7H6N2O4/c1-5-6(8(10)11)3-2-4-7(5)9(12)13/h2-4H,1H3
