19
metacyc CPD-9137  -320.42837648 -320.42837648 -320.42837648 -320.42837648 -320.42837648 -320.42837648 -320.42837648 -320.42837648 -320.42837648 -320.42837648 -320.42837648 -320.42837648 -320.42837648 -320.42837648 -320.42837648
C          0.87223       -0.21576        0.01434
C          2.36903       -0.03041        0.04596
C          3.29083       -1.00968       -0.11680
C          4.74465       -0.85217       -0.08585
C          5.68623       -1.81070       -0.24125
O          5.37095       -3.14834       -0.47105
C          7.21773       -1.42298       -0.16231
O          8.01592       -2.36910        0.09214
O          7.46527       -0.19097       -0.34329
O          2.92424       -2.33259       -0.33690
C          2.73352        1.40559        0.28689
H          3.80003        1.66167        0.32501
O          1.88130        2.27725        0.43930
H          0.54418       -1.24190       -0.15855
H          0.43229        0.39093       -0.78506
H          0.43216        0.09574        0.96827
H          5.13802        0.14688        0.08257
H          4.39788       -3.18882       -0.46864
H          1.96224       -2.41763       -0.35504
19 19 19 19 19 19 19 19 19 19 19 19 19 19 19 19 19 19 19 19 19 19 19 19 19 19 19 19 19 19 19 19 19 19 19 19 19 19 19 19 19 19 19 19 19 19 19 19 19 19 19 19
CC(=C(C=C(O)C([O-])=O)O)[CH]=O
InChI=1S/C7H8O5/c1-4(3-8)5(9)2-6(10)7(11)12/h2-3,9-10H,1H3,(H,11,12)/p-1/b5-4+,6-2+
