24
metacyc CPD-15757  -397.59112704 -397.59112704 -397.59112704 -397.59112704 -397.59112704 -397.59112704 -397.59112704 -397.59112704 -397.59112704 -397.59112704 -397.59112704 -397.59112704 -397.59112704 -397.59112704 -397.59112704
C          1.06534        0.15956        0.06833
O          0.71048        1.48444        0.44125
C          2.58596        0.03479       -0.12808
O          2.98208       -1.29886       -0.47917
C          2.61717       -1.71522       -1.79401
O          3.15926       -3.01101       -2.00821
C          3.13319       -0.75970       -2.88951
O          4.57150       -0.87833       -2.98127
C          2.72241        0.68093       -2.55659
O          3.29607        1.59474       -3.49420
C          3.16852        1.04378       -1.13173
O          4.61488        0.97136       -1.09466
H          0.49569       -0.12515       -0.82126
H          0.74556       -0.51937        0.86671
H          0.35715        1.94317       -0.34194
H          3.05452        0.23567        0.84282
H          1.52795       -1.80979       -1.84659
H          4.06509       -2.84700       -2.33870
H          2.75408       -1.05996       -3.87185
H          4.93711       -0.40334       -2.20170
H          1.63585        0.78239       -2.64416
H          4.26419        1.46914       -3.42710
H          2.89992        2.07836       -0.89168
H          4.88390        1.04363       -0.16027
24 24 24 24 24 24 24 24 24 24 24 24 24 24 24 24 24 24 24 24 24 24 24 24 24 24 24 24 24 24 24 24 24 24 24 24 24 24 24 24 24 24 24 24 24 24 24 24 24 24 24 24 24 24 24 24 24 24 24 24 24 24 24 24 24 24 24
C(O)C1(OC(O)C(O)C(O)C(O)1)
InChI=1S/C6H12O6/c7-1-2-3(8)4(9)5(10)6(11)12-2/h2-11H,1H2/t2-,3+,4-,5+,6-/m1/s1
