17
metacyc CPD-10657  -264.81171968 -264.81171968 -264.81171968 -264.81171968 -264.81171968 -264.81171968 -264.81171968 -264.81171968 -264.81171968 -264.81171968 -264.81171968 -264.81171968 -264.81171968 -264.81171968 -264.81171968
C          0.90237       -0.05046        0.18954
C          2.38972        0.08298        0.03043
C          3.01624        0.84997       -0.88693
C          2.38137        1.68771       -1.88940
C          3.05107        2.43398       -2.78252
C          2.34670        3.30680       -3.82595
O          1.08328        3.30533       -3.82475
O          3.13831        3.94155       -4.58559
C          3.23077       -0.76277        1.04101
O          2.55145       -1.45157        1.86194
O          4.49000       -0.68177        0.94622
H          0.32486        0.54391       -0.52182
H          0.59770        0.27181        1.19068
H          0.59821       -1.09322        0.04920
H          4.10633        0.85600       -0.89417
H          1.29691        1.71792       -1.92402
H          4.13570        2.44586       -2.79782
17 17 17 17 17 17 17 17 17 17 17 17 17 17 17 17 17 17 17 17 17 17 17 17 17 17 17 17 17 17 17 17 17 17 17 17 17 17 17 17 17 17 17 17 17 17
CC(=CC=CC([O-])=O)C([O-])=O
InChI=1S/C7H8O4/c1-5(7(10)11)3-2-4-6(8)9/h2-4H,1H3,(H,8,9)(H,10,11)/p-2/b4-2-,5-3-
