27
metacyc CPD-12576  -1019.03805296 -1019.03805296 -1019.03805296 -1019.03805296 -1019.03805296 -1019.03805296 -1019.03805296 -1019.03805296 -1019.03805296 -1019.03805296 -1019.03805296 -1019.03805296 -1019.03805296 -1019.03805296 -1019.03805296
C          0.63591       -3.23479        0.29398
O         -0.37702       -2.20940        0.51043
C         -0.76390       -1.46875       -0.57670
C         -1.82135       -0.44365       -0.18605
C         -1.28134        0.95181        0.15081
O         -0.30110        0.85423        1.21697
C         -0.65316        1.51686       -1.19449
O          0.60293        1.42602       -1.32736
O         -1.47722        2.01582       -2.03004
C         -2.36159        1.96100        0.60770
C         -3.13981        1.77767        1.90841
O         -3.18805        0.61097        2.38791
O         -3.67939        2.82997        2.37584
O         -0.38602       -1.67544       -1.72416
C          0.02522       -4.61849        0.06209
N         -0.65336       -4.69782       -1.23916
C          1.06351       -5.77006        0.09259
O          2.27864       -5.45124        0.25852
O          0.58946       -6.94878        0.01413
H          1.22175       -3.25582        1.22339
H          1.33383       -2.93746       -0.49554
H         -2.36203       -0.87676        0.66075
H         -2.54305       -0.40233       -1.00837
H         -0.76760        0.38185        1.93274
H         -3.12905        2.06122       -0.17174
H         -1.87821        2.94576        0.69281
H         -0.71974       -4.81885        0.84060
27 27 27 27 27 27 27 27 27 27 27 27 27 27 27 27 27 27 27 27 27 27 27 27 27 27 27 27 27 27 27 27 27 27 27 27 27 27 27 27 27 27 27 27 27 27 27 27 27 27 27 27 27 27 27 27 27 27 27 27 27 27 27 27 27 27 27 27 27 27 27 27 27 27 27 27
C(OC(CC(O)(C(=O)[O-])CC(=O)[O-])=O)C([N+])C(=O)[O-]
InChI=1S/C9H13NO9/c10-4(7(14)15)3-19-6(13)2-9(18,8(16)17)1-5(11)12/h4,18H,1-3,10H2,(H,11,12)(H,14,15)(H,16,17)/p-2/t4-,9?/m0/s1
