27
metacyc CPD-8064  -257.375902328 -257.375902328 -257.375902328 -257.375902328 -257.375902328 -257.375902328 -257.375902328 -257.375902328 -257.375902328 -257.375902328 -257.375902328 -257.375902328 -257.375902328 -257.375902328 -257.375902328
C          1.01263        0.17623       -0.21095
O          2.41181       -0.00805       -0.02995
C          2.97493        0.75958        1.05063
C          4.44785        0.31424        1.21073
C          5.26407        0.64474       -0.06033
C          5.15565        2.13544       -0.43820
C          3.68915        2.59431       -0.52451
C          2.93303        2.27616        0.77980
O          3.55448        2.99215        1.86191
O          3.62227        4.00181       -0.77516
O          5.88616        2.91228        0.53884
O          6.64646        0.31979        0.14484
O          4.47499       -1.09160        1.49525
H          0.66578       -0.56113       -0.94059
H          0.80545        1.17004       -0.61640
H          0.47169        0.02589        0.72682
H          2.44000        0.51200        1.97380
H          4.90386        0.79916        2.08107
H          4.92012        0.01948       -0.89153
H          5.66704        2.32058       -1.38946
H          3.20072        2.09766       -1.37100
H          1.90572        2.64676        0.70293
H          3.03898        2.80869        2.67194
H          4.10132        4.43509       -0.04227
H          5.27653        3.09893        1.28446
H          7.04333        1.09939        0.58331
H          4.09775       -1.53655        0.71523
27 27 27 27 27 27 27 27 27 27 27 27 27 27 27 27 27 27 27 27 27 27 27 27 27 27 27 27 27 27 27 27 27 27 27 27 27 27 27 27 27 27 27 27 27 27 27 27 27 27 27 27 27 27 27 27 27 27 27 27 27 27 27 27 27 27 27 27 27 27 27 27 27 27 27 27
COC1(C(C(C(C(C1O)O)O)O)O)
InChI=1S/C7H14O6/c1-13-7-5(11)3(9)2(8)4(10)6(7)12/h2-12H,1H3/t2-,3-,4+,5-,6+,7+
