24
metacyc CPD-19754  -424.12162 -424.12162 -424.12162 -424.12162 -424.12162 -424.12162 -424.12162 -424.12162 -424.12162 -424.12162 -424.12162 -424.12162 -424.12162 -424.12162 -424.12162
C          0.66395       -0.15244        0.05247
O         -0.04249        0.78724        0.50907
O          0.22888       -1.26421       -0.41270
C          2.20089       -0.00742        0.02485
C          2.86993        1.23284        0.64764
C          4.43656        1.20099        0.66649
C          5.04823        1.20209       -0.81041
O          4.44411        1.86077       -1.72018
O          6.07985        0.46296       -0.98889
N          5.00780        2.33419        1.52422
C          4.66975        2.21894        2.97881
C          5.27832        3.34535        3.86221
N          4.74075        4.67493        3.49766
C          5.08790        3.26239        5.42327
O          4.05476        2.69805        5.89773
O          6.01602        3.80878        6.12154
H          2.49848       -0.07813       -1.02652
H          2.60198       -0.89770        0.52729
H          2.49060        1.29736        1.67283
H          2.51835        2.13828        0.13983
H          4.74434        0.23965        1.10401
H          5.02991        1.25955        3.37447
H          3.58800        2.22716        3.14530
H          6.36026        3.36961        3.68166
24 24 24 24 24 24 24 24 24 24 24 24 24 24 24 24 24 24 24 24 24 24 24 24 24 24 24 24 24 24 24 24 24 24 24 24 24 24 24 24 24 24 24 24 24 24 24 24 24 24 24 24 24 24 24 24 24 24 24 24 24 24 24 24 24 24 24
C([O-])(=O)CCC(C(=O)[O-])[N+]CC([N+])C(=O)[O-]
InChI=1S/C8H14N2O6/c9-4(7(13)14)3-10-5(8(15)16)1-2-6(11)12/h4-5,10H,1-3,9H2,(H,11,12)(H,13,14)(H,15,16)/p-1/t4-,5-/m0/s1
