18
metacyc CPD-20943  -59.802301112 -59.802301112 -59.802301112 -59.802301112 -59.802301112 -59.802301112 -59.802301112 -59.802301112 -59.802301112 -59.802301112 -59.802301112 -59.802301112 -59.802301112 -59.802301112 -59.802301112
C          1.08254        0.19681       -0.01891
C          2.57604        0.06617        0.10690
O          3.14996       -0.99614       -0.13725
N          3.23505        1.19949        0.45868
C          2.81401        2.55996        0.81941
C          4.28166        2.93732        0.50421
C          4.63601        1.45489        0.71228
C          2.33503        2.78254        2.25527
O          3.19038        3.12005        3.13432
O          1.08984        2.62018        2.46777
H          0.67267       -0.72892       -0.43452
H          0.82982        1.01508       -0.69866
H          0.63465        0.36593        0.96218
H          2.10875        2.98864        0.09630
H          4.77905        3.64398        1.17369
H          4.42918        3.28390       -0.52717
H          4.94370        1.17711        1.72473
H          5.31883        1.03012       -0.02603
18 18 18 18 18 18 18 18 18 18 18 18 18 18 18 18 18 18 18 18 18 18 18 18 18 18 18 18 18 18 18 18 18 18 18 18 18 18 18 18 18 18 18 18 18 18 18 18 18
CC(=O)N1(C(CC1)C([O-])=O)
InChI=1S/C6H9NO3/c1-4(8)7-3-2-5(7)6(9)10/h5H,2-3H2,1H3,(H,9,10)/p-1/t5-/m0/s1
