15
metacyc CPD-15952  -193.27739052 -193.27739052 -193.27739052 -193.27739052 -193.27739052 -193.27739052 -193.27739052 -193.27739052 -193.27739052 -193.27739052 -193.27739052 -193.27739052 -193.27739052 -193.27739052 -193.27739052
C          1.17013       -0.52004       -0.23881
N          2.49108        0.02893        0.11495
N          3.13672        0.96152       -0.64802
O          2.54383        1.27293       -1.68394
C          3.10168       -0.44683        1.30105
N          2.41745       -0.92681        2.29210
N          4.47668       -0.37752        1.29139
N          5.27635       -0.79334        2.28227
O          4.82897       -1.16384        3.36439
O          6.46802       -0.73747        1.96588
H          0.81041       -0.18101       -1.21601
H          0.41486       -0.22187        0.49522
H          1.22128       -1.61351       -0.27809
H          1.41083       -0.85509        2.16096
H          4.92609       -0.10237        0.43676
15 15 15 15 15 15 15 15 15 15 15 15 15 15 15 15 15 15 15 15 15 15 15 15 15 15 15 15 15 15 15 15 15 15 15 15 15 15 15 15
CN(N=O)C(=N)NN(=O)=O
InChI=1S/C2H5N5O3/c1-6(5-8)2(3)4-7(9)10/h1H3,(H2,3,4)
