22
metacyc CPD-19118  -112.771724376 -112.771724376 -112.771724376 -112.771724376 -112.771724376 -112.771724376 -112.771724376 -112.771724376 -112.771724376 -112.771724376 -112.771724376 -112.771724376 -112.771724376 -112.771724376 -112.771724376
C          2.76719        0.33574        2.77503
O          3.58416       -0.29477        3.49808
O          1.80274        1.08011        3.11544
C          2.95196        0.19491        1.28166
C          2.97801       -1.23743        0.82114
C          2.01041       -2.26742        1.34026
C          2.31867       -3.64710        1.23618
C          1.38733       -4.58996        1.70746
C          0.18307       -4.18871        2.28515
C         -0.11438       -2.83439        2.38971
C          0.78787       -1.87944        1.91271
N          3.49172       -4.10971        0.57551
O          4.11323       -5.27439        1.03112
O          3.74982       -1.57284       -0.08756
H          3.92463        0.64263        1.04117
H          2.18776        0.73498        0.71672
H          1.59822       -5.65093        1.61905
H         -0.51867       -4.93267        2.65024
H         -1.04433       -2.51169        2.84978
H          0.51462       -0.83056        2.00660
H          4.14667       -3.32431        0.43823
H          3.66078       -5.96746        0.51995
22 22 22 22 22 22 22 22 22 22 22 22 22 22 22 22 22 22 22 22 22 22 22 22 22 22 22 22 22 22 22 22 22 22 22 22 22 22 22 22 22 22 22 22 22 22 22 22 22 22 22 22 22 22 22 22 22 22 22 22 22
C([O-])(=O)CC(C1(C(=CC=CC=1)NO))=O
InChI=1S/C9H9NO4/c11-8(5-9(12)13)6-3-1-2-4-7(6)10-14/h1-4,10,14H,5H2,(H,12,13)/p-1
