16
metacyc CPD-16722  -73.986830968 -73.986830968 -73.986830968 -73.986830968 -73.986830968 -73.986830968 -73.986830968 -73.986830968 -73.986830968 -73.986830968 -73.986830968 -73.986830968 -73.986830968 -73.986830968 -73.986830968
C          1.08494       -0.00519        0.04299
H          0.57324       -0.98056        0.08743
O          0.45229        1.04478        0.09153
C          2.55625       -0.01768       -0.07728
C          3.24834        1.19790       -0.13601
C          4.63388        1.18381       -0.24976
C          5.33497       -0.01714       -0.30209
C          4.64561       -1.23006       -0.24425
C          3.25468       -1.22792       -0.13340
O          2.57543       -2.41253       -0.08071
O          5.35276        2.33995       -0.31507
H          2.69816        2.13378       -0.09236
H          6.41853       -0.00625       -0.38911
H          5.20961       -2.15695       -0.28739
H          3.20953       -3.14768       -0.14562
H          4.73864        3.09350       -0.28538
16 16 16 16 16 16 16 16 16 16 16 16 16 16 16 16 16 16 16 16 16 16 16 16 16 16 16 16 16 16 16 16 16 16 16 16 16 16 16 16 16 16 16
[CH](=O)C1(=CC(=CC=C(O)1)O)
InChI=1S/C7H6O3/c8-4-5-3-6(9)1-2-7(5)10/h1-4,9-10H
