22
metacyc CPD-12523  -708.65228064 -708.65228064 -708.65228064 -708.65228064 -708.65228064 -708.65228064 -708.65228064 -708.65228064 -708.65228064 -708.65228064 -708.65228064 -708.65228064 -708.65228064 -708.65228064 -708.65228064
C          0.97893        0.10844        0.15984
O          0.33453       -0.97661        0.04226
O          0.53858        1.27745        0.32939
C          2.52777       -0.03678        0.05571
C          2.98625       -1.46588       -0.27870
C          2.65991       -1.82669       -1.74477
C          3.12838       -0.71743       -2.69136
C          2.62167        0.65891       -2.22975
O          3.10378        0.89607       -0.90598
O          3.17846        1.65832       -3.08472
O          4.58859       -0.68347       -2.68877
O          3.31919       -3.05313       -2.12187
O          2.45316       -2.43359        0.63032
H          2.92161        0.23888        1.04156
H          4.07458       -1.51812       -0.15265
H          1.58818       -2.00720       -1.87285
H          2.84064       -0.92833       -3.72583
H          1.53213        0.74162       -2.28436
H          4.07223        1.34126       -3.29982
H          4.83039       -0.18839       -1.87728
H          4.26430       -2.82435       -2.20062
H          1.47260       -2.30555        0.56572
22 22 22 22 22 22 22 22 22 22 22 22 22 22 22 22 22 22 22 22 22 22 22 22 22 22 22 22 22 22 22 22 22 22 22 22 22 22 22 22 22 22 22 22 22 22 22 22 22 22 22 22 22 22 22 22 22 22 22 22 22
C([O-])(=O)C1(C(C(C(C(O1)O)O)O)O)
InChI=1S/C6H10O7/c7-1-2(8)4(5(10)11)13-6(12)3(1)9/h1-4,6-9,12H,(H,10,11)/p-1/t1-,2+,3+,4-,6-/m0/s1
