15
metacyc CPD-280  -155.034864848 -155.034864848 -155.034864848 -155.034864848 -155.034864848 -155.034864848 -155.034864848 -155.034864848 -155.034864848 -155.034864848 -155.034864848 -155.034864848 -155.034864848 -155.034864848 -155.034864848
C          0.92141       -0.04896       -0.02383
H          0.73144       -0.07197        1.06359
C          0.17732       -1.07288       -0.83409
C         -1.32542       -0.88219       -0.64560
C         -2.14182       -1.91648       -1.41265
C         -1.93992       -3.36227       -0.94974
O         -1.60262       -3.51005        0.25791
O         -2.13395       -4.23109       -1.84486
O          1.72188        0.75481       -0.49870
H          0.50791       -2.05766       -0.48887
H          0.45462       -0.96935       -1.88810
H         -1.60753        0.12050       -0.99112
H         -1.57756       -0.91517        0.42192
H         -1.91511       -1.84169       -2.48303
H         -3.20817       -1.68820       -1.29357
15 15 15 15 15 15 15 15 15 15 15 15 15 15 15 15 15 15 15 15 15 15 15 15 15 15 15 15 15 15 15 15 15 15 15 15 15 15 15 15
[CH](CCCC(=O)[O-])=O
InChI=1S/C5H8O3/c6-4-2-1-3-5(7)8/h4H,1-3H2,(H,7,8)/p-1
