27
metacyc CPD-15245  -343.4595392 -343.4595392 -343.4595392 -343.4595392 -343.4595392 -343.4595392 -343.4595392 -343.4595392 -343.4595392 -343.4595392 -343.4595392 -343.4595392 -343.4595392 -343.4595392 -343.4595392
C          1.02245        0.09045        0.02748
H          0.47799       -0.72695       -0.47677
O          0.40867        0.98310        0.60171
C          2.53376        0.02024       -0.09394
O          3.19800        1.12865        0.52037
C          4.48270        0.65944        0.96036
C          4.20434       -0.77470        1.44593
O          5.30723       -1.64663        1.60346
C          3.05645       -1.26119        0.55940
O          3.41719       -2.22800       -0.42464
N          5.44321        0.96771       -0.11801
C          5.62550        2.31529       -0.40430
C          6.37318        2.73875       -1.42452
C          7.06081        1.74018       -2.25109
O          7.65693        2.05748       -3.27171
N          6.95528        0.45085       -1.82296
C          6.04624        0.00212       -0.90369
O          5.78275       -1.19866       -0.85902
H          2.76548        0.04447       -1.16544
H          4.79525        1.26077        1.82450
H          3.77543       -0.66359        2.45133
H          5.57542       -1.95037        0.71238
H          2.29346       -1.74211        1.18271
H          4.26681       -1.96257       -0.83526
H          5.08273        3.02876        0.21306
H          6.47879        3.78089       -1.69372
H          7.37900       -0.24602       -2.41563
27 27 27 27 27 27 27 27 27 27 27 27 27 27 27 27 27 27 27 27 27 27 27 27 27 27 27 27 27 27 27 27 27 27 27 27 27 27 27 27 27 27 27 27 27 27 27 27 27 27 27 27 27 27 27 27 27 27 27 27 27 27 27 27 27 27 27 27 27 27 27 27 27 27 27 27
[CH](=O)C1(OC(C(O)C(O)1)N2(C=CC(=O)NC(=O)2))
InChI=1S/C9H10N2O6/c12-3-4-6(14)7(15)8(17-4)11-2-1-5(13)10-9(11)16/h1-4,6-8,14-15H,(H,10,13,16)/t4-,6-,7-,8-/m1/s1
