20
metacyc CPD-19213  -160.126006256 -160.126006256 -160.126006256 -160.126006256 -160.126006256 -160.126006256 -160.126006256 -160.126006256 -160.126006256 -160.126006256 -160.126006256 -160.126006256 -160.126006256 -160.126006256 -160.126006256
C          1.96482       -0.11079       -1.41255
C          2.56517        0.12284       -0.05324
O          2.59544        1.25530        0.43932
C          3.21850       -0.98973        0.69764
C          4.20863       -0.66199        1.64765
O          4.61152        0.62700        1.89383
C          4.85273       -1.64595        2.39694
C          4.49670       -2.97364        2.21259
O          5.07341       -3.97200        2.94024
C          3.52871       -3.33184        1.27938
C          2.89473       -2.34205        0.51996
O          1.93899       -2.72984       -0.37765
H          1.66716        0.85527       -1.83457
H          1.06722       -0.72800       -1.35206
H          2.71190       -0.54955       -2.07899
H          3.98031        1.23255        1.44007
H          5.60926       -1.35305        3.12008
H          5.68844       -3.57394        3.58023
H          3.27661       -4.38265        1.16672
H          1.85606       -3.69982       -0.36423
20 20 20 20 20 20 20 20 20 20 20 20 20 20 20 20 20 20 20 20 20 20 20 20 20 20 20 20 20 20 20 20 20 20 20 20 20 20 20 20 20 20 20 20 20 20 20 20 20 20 20 20 20 20 20
CC(=O)C1(C(O)=CC(O)=CC(O)=1)
InChI=1S/C8H8O4/c1-4(9)8-6(11)2-5(10)3-7(8)12/h2-3,10-12H,1H3
