16
metacyc CPD-583  -600.79160576 -600.79160576 -600.79160576 -600.79160576 -600.79160576 -600.79160576 -600.79160576 -600.79160576 -600.79160576 -600.79160576 -600.79160576 -600.79160576 -600.79160576 -600.79160576 -600.79160576
C          1.01114        0.01668       -0.80875
H          0.34578       -0.77554       -1.18830
N          0.35749        1.17803       -0.52237
C         -1.11212        1.22718       -0.34444
C         -1.56199        1.05156        1.15479
O         -2.80197        0.88288        1.35571
O         -0.62653        1.05928        2.01553
C         -1.66830        2.54711       -0.87242
C         -1.52545        2.76082       -2.37762
O         -1.64426        1.74538       -3.12182
O         -1.35020        3.96937       -2.72720
O          2.22322       -0.13900       -0.71497
H          0.88347        1.84030        0.02678
H         -1.54565        0.38295       -0.89492
H         -1.19713        3.38536       -0.34220
H         -2.74376        2.61295       -0.66152
16 16 16 16 16 16 16 16 16 16 16 16 16 16 16 16 16 16 16 16 16 16 16 16 16 16 16 16 16 16 16 16 16 16 16 16 16 16 16 16 16 16 16
[CH](NC(C(=O)[O-])CC(=O)[O-])=O
InChI=1S/C5H7NO5/c7-2-6-3(5(10)11)1-4(8)9/h2-3H,1H2,(H,6,7)(H,8,9)(H,10,11)/p-2/t3-/m0/s1
