30
metacyc CPD-12541  -245.028453904 -245.028453904 -245.028453904 -245.028453904 -245.028453904 -245.028453904 -245.028453904 -245.028453904 -245.028453904 -245.028453904 -245.028453904 -245.028453904 -245.028453904 -245.028453904 -245.028453904
C          0.77335        0.11817        1.84023
C          2.25425        0.11216        2.11359
O          2.72641       -0.08819        3.22239
N          3.02074        0.35013        0.99585
C          4.49756        0.43339        1.04167
C          5.16611       -0.91560        0.66512
O          4.70803       -1.99424        1.46036
O          4.93541       -1.25320       -0.70192
C          5.45470       -0.31033       -1.64578
C          6.98200       -0.43551       -1.80747
O          7.51633        0.51653       -2.71627
C          4.89376        1.10099       -1.38008
O          5.42368        2.08617       -2.26046
C          5.00710        1.53859        0.09122
O          6.33614        1.96947        0.41091
H          0.23445       -0.22418        2.72665
H          0.53839       -0.55249        1.00893
H          0.44962        1.13454        1.59670
H          2.56160        0.32296        0.09245
H          4.78033        0.67516        2.07343
H          6.24388       -0.85320        0.84444
H          3.76276       -1.84080        1.62192
H          5.04694       -0.60857       -2.62081
H          7.23770       -1.44008       -2.16491
H          7.50931       -0.31686       -0.85868
H          7.07344        0.39114       -3.57454
H          3.82124        1.05041       -1.60639
H          6.37591        2.17944       -2.04807
H          4.39295        2.43803        0.22452
H          6.96602        1.23301        0.39846
30 30 30 30 30 30 30 30 30 30 30 30 30 30 30 30 30 30 30 30 30 30 30 30 30 30 30 30 30 30 30 30 30 30 30 30 30 30 30 30 30 30 30 30 30 30 30 30 30 30 30 30 30 30 30 30 30 30 30 30 30 30 30 30 30 30 30 30 30 30 30 30 30 30 30 30 30 30 30 30 30 30 30 30 30
CC(=O)NC1(C(O)OC(CO)C(O)C(O)1)
InChI=1S/C8H15NO6/c1-3(11)9-5-7(13)6(12)4(2-10)15-8(5)14/h4-8,10,12-14H,2H2,1H3,(H,9,11)/t4-,5-,6-,7-,8+/m1/s1
