15
metacyc CPD-8742  -540.12825 -540.12825 -540.12825 -540.12825 -540.12825 -540.12825 -540.12825 -540.12825 -540.12825 -540.12825 -540.12825 -540.12825 -540.12825 -540.12825 -540.12825
C          1.21917        0.43958       -0.57676
O          0.24801       -0.37174       -0.53030
O          1.20915        1.66295       -0.90753
C          2.56790       -0.09583       -0.07592
C          3.11610       -1.23835       -0.89293
C          4.43178       -1.44675       -1.07468
C          4.96399       -2.61046       -1.84920
O          4.24022       -3.44156       -2.39753
C          6.49911       -2.80735       -1.96089
O          7.22403       -1.95434       -1.34382
O          6.93588       -3.79261       -2.64213
H          2.41279       -0.44497        0.95254
H          3.29277        0.72636       -0.03217
H          2.38922       -1.92254       -1.32808
H          5.17768       -0.78894       -0.64251
15 15 15 15 15 15 15 15 15 15 15 15 15 15 15 15 15 15 15 15 15 15 15 15 15 15 15 15 15 15 15 15 15 15 15 15 15 15 15 15
C([O-])(=O)CC=CC(=O)C(=O)[O-]
InChI=1S/C6H6O5/c7-4(6(10)11)2-1-3-5(8)9/h1-2H,3H2,(H,8,9)(H,10,11)/p-2/b2-1+
