19
metacyc CPD-9738  -358.53331968 -358.53331968 -358.53331968 -358.53331968 -358.53331968 -358.53331968 -358.53331968 -358.53331968 -358.53331968 -358.53331968 -358.53331968 -358.53331968 -358.53331968 -358.53331968 -358.53331968
C          3.08541        1.68408       -0.56833
C          3.69030        0.64462       -0.03642
C          3.74303       -0.76796        0.02941
C          4.17190       -1.58932       -1.18480
C          5.61638       -1.35531       -1.65136
O          6.52858       -2.01813       -1.07372
O          5.77326       -0.41812       -2.49710
C          3.94856       -3.07731       -0.94584
C          3.69810       -4.00607       -2.15215
O          3.45742       -3.44185       -3.27088
O          3.64420       -5.26681       -1.94286
O          3.80363       -3.58290        0.17457
C          4.71648        0.19790        0.81373
H          2.27790        1.53740       -1.27581
H          3.42067        2.68915       -0.35413
H          2.93362       -1.23130        0.57891
H          3.49694       -1.30000       -2.00054
H          5.73366        0.30196        0.46058
H          4.56955        0.28638        1.87919
19 19 19 19 19 19 19 19 19 19 19 19 19 19 19 19 19 19 19 19 19 19 19 19 19 19 19 19 19 19 19 19 19 19 19 19 19 19 19 19 19 19 19 19 19 19 19 19 19 19 19 19
C=C1(C(C(C(=O)[O-])C(C([O-])=O)=O)C1)
InChI=1S/C8H8O5/c1-3-2-4(3)5(7(10)11)6(9)8(12)13/h4-5H,1-2H2,(H,10,11)(H,12,13)/p-2
