19
metacyc CPD-600  -508.06481452 -508.06481452 -508.06481452 -508.06481452 -508.06481452 -508.06481452 -508.06481452 -508.06481452 -508.06481452 -508.06481452 -508.06481452 -508.06481452 -508.06481452 -508.06481452 -508.06481452
C          1.07329       -0.04990        0.11149
O          0.47948        0.19116        1.15842
N          2.41879       -0.00798       -0.03421
C          3.19430       -0.39933       -1.24213
C          2.93477        0.59540       -2.38737
C          3.60197        0.22113       -3.71336
C          3.25007        1.10309       -4.91899
O          2.40817        2.02659       -4.72946
O          3.83493        0.78622       -5.99823
C          4.71957       -0.53909       -0.87778
O          5.10539        0.21801        0.07009
O          5.34911       -1.46978       -1.45719
H          0.54040       -0.32392       -0.81130
H          3.00729        0.25968        0.75081
H          2.81726       -1.38777       -1.53609
H          3.25426        1.60088       -2.08641
H          1.85143        0.66238       -2.55521
H          3.32916       -0.80817       -3.97722
H          4.69134        0.25092       -3.59404
19 19 19 19 19 19 19 19 19 19 19 19 19 19 19 19 19 19 19 19 19 19 19 19 19 19 19 19 19 19 19 19 19 19 19 19 19 19 19 19 19 19 19 19 19 19 19 19 19 19 19 19
C(=O)NC(CCC(=O)[O-])C(=O)[O-]
InChI=1S/C6H9NO5/c8-3-7-4(6(11)12)1-2-5(9)10/h3-4H,1-2H2,(H,7,8)(H,9,10)(H,11,12)/p-2/t4-/m0/s1
