19
metacyc CPD-1130  -496.428604256 -496.428604256 -496.428604256 -496.428604256 -496.428604256 -496.428604256 -496.428604256 -496.428604256 -496.428604256 -496.428604256 -496.428604256 -496.428604256 -496.428604256 -496.428604256 -496.428604256
C          0.90989       -0.11437       -0.10573
C          2.43443       -0.09172       -0.05731
C          3.00600        0.09231        1.36337
C          2.50794       -1.10014        2.20358
O          2.88071       -2.25673        1.84294
O          1.67446       -0.80374        3.11702
C          4.54195        0.16484        1.37303
C          5.09068        1.33398        0.47273
O          5.28192        2.42427        1.11016
O          5.34774        1.07092       -0.73667
O          4.99485        0.45275        2.73050
H          0.56955       -0.13048       -1.14636
H          0.48892        0.77444        0.37430
H          0.50208       -1.00224        0.38661
H          2.76034        0.73571       -0.69643
H          2.81965       -1.01206       -0.51385
H          2.60323        1.01786        1.79648
H          5.00472       -0.78009        1.06884
H          5.14423        1.42616        2.68383
19 19 19 19 19 19 19 19 19 19 19 19 19 19 19 19 19 19 19 19 19 19 19 19 19 19 19 19 19 19 19 19 19 19 19 19 19 19 19 19 19 19 19 19 19 19 19 19 19 19 19 19
CCC(C([O-])=O)C(C(=O)[O-])O
InChI=1S/C6H10O5/c1-2-3(5(8)9)4(7)6(10)11/h3-4,7H,2H2,1H3,(H,8,9)(H,10,11)/p-2
