18
metacyc CPD-18291  -94.450549032 -94.450549032 -94.450549032 -94.450549032 -94.450549032 -94.450549032 -94.450549032 -94.450549032 -94.450549032 -94.450549032 -94.450549032 -94.450549032 -94.450549032 -94.450549032 -94.450549032
C          0.92114       -0.04965        0.06087
C          2.41610       -0.04400       -0.04753
C          3.11480        1.17159       -0.12922
C          4.51658        1.20886       -0.24565
C          5.25887        2.52937       -0.34173
O          6.52502        2.47362       -0.45123
O          4.56160        3.59211       -0.30570
C          5.21225       -0.00992       -0.27582
C          4.53309       -1.22728       -0.19868
C          3.14321       -1.23602       -0.08995
O          2.46887       -2.42572       -0.02729
H          0.52100        0.96512        0.15903
H          0.60434       -0.61440        0.94371
H          0.47997       -0.49947       -0.83434
H          2.57531        2.11837       -0.10567
H          6.29767        0.00491       -0.36405
H          5.10769       -2.14595       -0.22724
H          3.12500       -3.13531       -0.11043
18 18 18 18 18 18 18 18 18 18 18 18 18 18 18 18 18 18 18 18 18 18 18 18 18 18 18 18 18 18 18 18 18 18 18 18 18 18 18 18 18 18 18 18 18 18 18 18 18
CC1(C=C(C(=O)[O-])C=CC=1O)
InChI=1S/C8H8O3/c1-5-4-6(8(10)11)2-3-7(5)9/h2-4,9H,1H3,(H,10,11)/p-1
