22
metacyc CPD-1242  -456.092835936 -456.092835936 -456.092835936 -456.092835936 -456.092835936 -456.092835936 -456.092835936 -456.092835936 -456.092835936 -456.092835936 -456.092835936 -456.092835936 -456.092835936 -456.092835936 -456.092835936
C          1.08042        0.07464        0.04992
O          0.70812        1.39228        0.42578
C          2.60771       -0.04162       -0.07248
O          3.05144       -1.37162       -0.40614
C          2.68004       -1.81012       -1.71870
C          3.21801       -0.88271       -2.82444
C          2.78843        0.52105       -2.43303
C          3.23348        0.96473       -1.04789
O          4.66724        0.89132       -0.99134
O          2.03078        1.20296       -3.12404
O          4.63251       -1.04474       -2.95359
O          3.19923       -3.12104       -1.90105
H          0.55560       -0.19169       -0.87236
H          0.72391       -0.61879        0.81928
H          0.34868        1.84395       -0.36055
H          3.02958        0.16671        0.91863
H          1.59002       -1.88804       -1.77043
H          2.77998       -1.15350       -3.78957
H          2.93374        1.99794       -0.85845
H          4.91469        0.44405       -0.15882
H          5.05080       -0.55455       -2.21499
H          4.08852       -2.99742       -2.28610
22 22 22 22 22 22 22 22 22 22 22 22 22 22 22 22 22 22 22 22 22 22 22 22 22 22 22 22 22 22 22 22 22 22 22 22 22 22 22 22 22 22 22 22 22 22 22 22 22 22 22 22 22 22 22 22 22 22 22 22 22
C(O)C1(OC(C(C(C1O)=O)O)O)
InChI=1S/C6H10O6/c7-1-2-3(8)4(9)5(10)6(11)12-2/h2-3,5-8,10-11H,1H2/t2-,3+,5-,6-/m1/s1
