19
metacyc CPD-13939  -230.802385296 -230.802385296 -230.802385296 -230.802385296 -230.802385296 -230.802385296 -230.802385296 -230.802385296 -230.802385296 -230.802385296 -230.802385296 -230.802385296 -230.802385296 -230.802385296 -230.802385296
C          1.16707        0.10503        0.28438
N          2.49178        0.17393       -0.29628
C          3.42021        1.25202        0.04616
O          2.89239        2.45252       -0.53305
C          4.65026        0.85428       -0.75797
C          4.68016       -0.65801       -0.60309
C          3.21629       -1.00665       -0.47860
O          2.76120       -2.14164       -0.52225
C          3.71611        1.43570        1.61797
O          2.69148        1.64814        2.34137
O          4.92191        1.29949        1.97450
H          0.71298        1.09866        0.31967
H          1.21828       -0.33277        1.28366
H          0.54731       -0.54502       -0.34288
H          2.13499        2.13211       -1.04345
H          5.57931        1.33223       -0.43511
H          4.51685        1.11349       -1.81794
H          5.20065       -0.96482        0.31000
H          5.12424       -1.14495       -1.47367
19 19 19 19 19 19 19 19 19 19 19 19 19 19 19 19 19 19 19 19 19 19 19 19 19 19 19 19 19 19 19 19 19 19 19 19 19 19 19 19 19 19 19 19 19 19 19 19 19 19 19 19
CN1(C(O)(CCC1=O)C(=O)[O-])
InChI=1S/C6H9NO4/c1-7-4(8)2-3-6(7,11)5(9)10/h11H,2-3H2,1H3,(H,9,10)/p-1/t6-/m1/s1
