18
metacyc CPD-10664  -94.450549032 -94.450549032 -94.450549032 -94.450549032 -94.450549032 -94.450549032 -94.450549032 -94.450549032 -94.450549032 -94.450549032 -94.450549032 -94.450549032 -94.450549032 -94.450549032 -94.450549032
C          1.05795        0.04527       -0.02031
C          2.55232        0.06093       -0.13395
C          3.24979        1.27437       -0.23451
C          4.64977        1.30654       -0.37004
C          5.33429        0.08316       -0.40206
C          4.65684       -1.12969       -0.30032
C          3.26840       -1.14140       -0.16809
O          6.69805        0.02167       -0.53966
C          5.38254        2.62255       -0.48107
O          4.70305        3.69337       -0.43163
O          6.64959        2.53947       -0.61752
H          0.65265        1.05547        0.09777
H          0.74909       -0.54076        0.85089
H          0.61896       -0.39262       -0.92264
H          2.71174        2.22194       -0.21281
H          5.21635       -2.05881       -0.32912
H          2.74929       -2.09261       -0.09581
H          6.99216        0.97285       -0.60445
18 18 18 18 18 18 18 18 18 18 18 18 18 18 18 18 18 18 18 18 18 18 18 18 18 18 18 18 18 18 18 18 18 18 18 18 18 18 18 18 18 18 18 18 18 18 18 18 18
CC1(=CC(=C(C=C1)O)C([O-])=O)
InChI=1S/C8H8O3/c1-5-2-3-7(9)6(4-5)8(10)11/h2-4,9H,1H3,(H,10,11)/p-1
