24
metacyc CPD-12601  -397.59112704 -397.59112704 -397.59112704 -397.59112704 -397.59112704 -397.59112704 -397.59112704 -397.59112704 -397.59112704 -397.59112704 -397.59112704 -397.59112704 -397.59112704 -397.59112704 -397.59112704
C          0.87497        0.22086        0.03569
O          0.52772        1.58193        0.30261
C          2.39587        0.07227       -0.12784
C          2.83358       -1.37312       -0.40466
O          2.18590       -2.28649        0.48150
C          2.54102       -1.77178       -1.85691
O          3.12304       -3.06002       -2.09971
C          3.08809       -0.73655       -2.83792
O          4.53316       -0.74623       -2.77656
C          2.56058        0.65767       -2.46724
O          3.13793        1.63657       -3.31639
O          2.91731        0.97889       -1.12288
H          0.33172       -0.08228       -0.86410
H          0.50490       -0.38459        0.87027
H          1.13784        2.14218       -0.21402
H          2.84483        0.39418        0.82021
H          3.91192       -1.46506       -0.22122
H          2.24728       -3.16833        0.06138
H          1.46089       -1.89264       -1.99693
H          4.04598       -2.89639       -2.38589
H          2.83122       -0.99794       -3.86959
H          4.79810       -0.15527       -2.04246
H          1.47484        0.72053       -2.59289
H          4.02080        1.31087       -3.56983
24 24 24 24 24 24 24 24 24 24 24 24 24 24 24 24 24 24 24 24 24 24 24 24 24 24 24 24 24 24 24 24 24 24 24 24 24 24 24 24 24 24 24 24 24 24 24 24 24 24 24 24 24 24 24 24 24 24 24 24 24 24 24 24 24 24 24
C(O)C1(C(O)C(O)C(O)C(O)O1)
InChI=1S/C6H12O6/c7-1-2-3(8)4(9)5(10)6(11)12-2/h2-11H,1H2/t2-,3-,4+,5+,6-/m1/s1
