19
metacyc CPD-1093  -175.974048488 -175.974048488 -175.974048488 -175.974048488 -175.974048488 -175.974048488 -175.974048488 -175.974048488 -175.974048488 -175.974048488 -175.974048488 -175.974048488 -175.974048488 -175.974048488 -175.974048488
C          0.83503        0.01813       -0.11280
C          2.33619        0.14109       -0.06661
O          2.87953        1.14508        0.40001
C          3.13196       -1.02688       -0.65361
O          2.84259       -1.09604       -2.05288
C          4.65210       -0.89778       -0.46324
O          5.13121        0.27767       -1.13731
C          5.09104       -0.92056        1.00898
O          6.51031       -0.85168        1.13593
H          0.38257        0.81631        0.48387
H          0.53127       -0.94334        0.30892
H          0.49070        0.10322       -1.14551
H          2.77852       -1.95033       -0.18444
H          3.38696       -0.39576       -2.46942
H          5.13870       -1.72962       -0.98785
H          4.94758        1.03596       -0.54352
H          4.75505       -1.84205        1.49365
H          4.69178       -0.07136        1.56853
H          6.91239       -1.31356        0.37988
19 19 19 19 19 19 19 19 19 19 19 19 19 19 19 19 19 19 19 19 19 19 19 19 19 19 19 19 19 19 19 19 19 19 19 19 19 19 19 19 19 19 19 19 19 19 19 19 19 19 19 19
CC(=O)C(O)C(O)CO
InChI=1S/C5H10O4/c1-3(7)5(9)4(8)2-6/h4-6,8-9H,2H2,1H3/t4-,5-/m1/s1
