19
metacyc CPD-9438  -488.855480576 -488.855480576 -488.855480576 -488.855480576 -488.855480576 -488.855480576 -488.855480576 -488.855480576 -488.855480576 -488.855480576 -488.855480576 -488.855480576 -488.855480576 -488.855480576 -488.855480576
C          1.06615        0.08797       -0.02010
O          0.47976       -0.45824        1.16636
C          2.59822        0.12113        0.05079
C          3.14384        0.73610       -1.25472
C          4.66782        0.74034       -1.38366
C          5.22863        1.23083       -2.73097
O          4.39079        1.56455       -3.61541
O          6.49497        1.23084       -2.81220
C          3.02137        0.88293        1.31969
O          2.17223        1.70212        1.78916
O          4.11103        0.51590        1.84264
H          0.63591        1.08401       -0.17995
H          0.73789       -0.54252       -0.85286
H          0.78967        0.16934        1.85737
H          2.95876       -0.91115        0.15220
H          2.77363        1.76404       -1.35986
H          2.72593        0.17323       -2.10104
H          5.04551       -0.27470       -1.22448
H          5.09686        1.37686       -0.60195
19 19 19 19 19 19 19 19 19 19 19 19 19 19 19 19 19 19 19 19 19 19 19 19 19 19 19 19 19 19 19 19 19 19 19 19 19 19 19 19 19 19 19 19 19 19 19 19 19 19 19 19
C(O)C(CCC([O-])=O)C([O-])=O
InChI=1S/C6H10O5/c7-3-4(6(10)11)1-2-5(8)9/h4,7H,1-3H2,(H,8,9)(H,10,11)/p-2/t4-/m0/s1
