16
metacyc CPD-1126  -365.32269648 -365.32269648 -365.32269648 -365.32269648 -365.32269648 -365.32269648 -365.32269648 -365.32269648 -365.32269648 -365.32269648 -365.32269648 -365.32269648 -365.32269648 -365.32269648 -365.32269648
C          0.92470       -0.81685        0.32821
N          0.23926       -0.84237       -0.84017
C         -1.24200       -0.81316       -0.88417
C         -1.68412        0.65601       -1.23925
O         -0.91769        1.28210       -2.04254
O         -2.72858        1.08700       -0.66080
C         -1.75919       -1.70493       -2.00614
C         -1.62739       -3.19512       -1.71591
O         -2.17873       -3.61547       -0.65660
O         -1.06450       -3.87839       -2.62416
N          2.11426       -0.43408        0.34773
H          0.39680       -1.16169        1.22866
H          0.60127       -0.25296       -1.59478
H         -1.66333       -1.10313        0.08553
H         -1.26394       -1.46552       -2.95551
H         -2.83033       -1.51713       -2.16231
16 16 16 16 16 16 16 16 16 16 16 16 16 16 16 16 16 16 16 16 16 16 16 16 16 16 16 16 16 16 16 16 16 16 16 16 16 16 16 16 16 16 16
C(NC(C(=O)[O-])CC(=O)[O-])=[N+]
InChI=1S/C5H8N2O4/c6-2-7-3(5(10)11)1-4(8)9/h2-3H,1H2,(H2,6,7)(H,8,9)(H,10,11)/p-1/t3-/m0/s1
