18
metacyc CPD-10824  -304.57101648 -304.57101648 -304.57101648 -304.57101648 -304.57101648 -304.57101648 -304.57101648 -304.57101648 -304.57101648 -304.57101648 -304.57101648 -304.57101648 -304.57101648 -304.57101648 -304.57101648
C          1.09715       -0.12593        0.05305
C          2.58195       -0.10401       -0.03998
C          3.37898       -1.15619       -0.21537
C          4.74784       -0.65118       -0.23619
O          5.73854       -1.34771       -0.37215
O          4.73250        0.69680       -0.07420
C          3.37059        1.15457        0.09964
C          3.09204        2.22771       -0.93699
C          1.77391        2.93828       -0.66998
O          1.44449        3.06675        0.54141
O          1.15591        3.30908       -1.70710
H          0.71187       -1.15047        0.04532
H          0.64845        0.39782       -0.79602
H          0.76160        0.34760        0.98034
H          3.12169       -2.19230       -0.32748
H          3.30204        1.54307        1.12244
H          3.10538        1.80444       -1.94958
H          3.88630        2.98398       -0.91284
18 18 18 18 18 18 18 18 18 18 18 18 18 18 18 18 18 18 18 18 18 18 18 18 18 18 18 18 18 18 18 18 18 18 18 18 18 18 18 18 18 18 18 18 18 18 18 18 18
CC1(=CC(=O)OC(CC([O-])=O)1)
InChI=1S/C7H8O4/c1-4-2-7(10)11-5(4)3-6(8)9/h2,5H,3H2,1H3,(H,8,9)/p-1/t5-/m0/s1
