23
metacyc CPD-17552  -166.154857376 -166.154857376 -166.154857376 -166.154857376 -166.154857376 -166.154857376 -166.154857376 -166.154857376 -166.154857376 -166.154857376 -166.154857376 -166.154857376 -166.154857376 -166.154857376 -166.154857376
C          1.06150       -0.19616        0.22615
O          0.43662        0.45188        1.12514
O          0.54459       -0.97476       -0.63996
C          2.60232       -0.04970        0.15556
O          3.16113        0.65000        0.99775
C          3.33323       -0.78736       -0.91958
C          4.65629       -0.70311       -1.16087
C          5.62177        0.14725       -0.43726
O          5.96145        1.47339       -0.89491
C          6.94079        0.45560       -1.11558
C          7.17561        0.12245       -2.55649
O          7.56620        1.30526       -3.25126
C          5.95479       -0.48470       -3.25074
C          5.23556       -1.46781       -2.33300
H          2.69286       -1.40727       -1.53639
H          5.64976       -0.01866        0.63627
H          7.84742        0.49466       -0.52836
H          8.00944       -0.58550       -2.62225
H          6.91400        1.98342       -2.98427
H          6.27212       -0.98504       -4.17342
H          5.26211        0.30731       -3.56842
H          5.93102       -2.23314       -1.96581
H          4.45639       -1.99088       -2.89976
23 23 23 23 23 23 23 23 23 23 23 23 23 23 23 23 23 23 23 23 23 23 23 23 23 23 23 23 23 23 23 23 23 23 23 23 23 23 23 23 23 23 23 23 23 23 23 23 23 23 23 23 23 23 23 23 23 23 23 23 23 23 23 23
C(=O)([O-])C(=O)C=C1(C2(OC(C(O)CC1)2))
InChI=1S/C9H10O5/c10-5-2-1-4(7-8(5)14-7)3-6(11)9(12)13/h3,5,7-8,10H,1-2H2,(H,12,13)/p-1/b4-3-/t5-,7-,8+/m1/s1
