23
metacyc CPD-17658  -251.466629928 -251.466629928 -251.466629928 -251.466629928 -251.466629928 -251.466629928 -251.466629928 -251.466629928 -251.466629928 -251.466629928 -251.466629928 -251.466629928 -251.466629928 -251.466629928 -251.466629928
C          1.10808        0.23444        0.64946
O          2.41188        0.08023        0.10378
C          2.89348        1.18496       -0.55270
C          2.57527        2.49758       -0.19375
C          3.08526        3.57574       -0.92532
C          3.92370        3.36387       -2.02748
C          4.29422        2.04790       -2.34106
C          3.78467        0.97318       -1.61017
O          4.14600       -0.30566       -1.95097
C          4.41404        4.54289       -2.83806
C          5.71186        5.17025       -2.24043
O          6.76584        4.84337       -2.88021
O          5.56267        5.97628       -1.28201
O          4.67629        4.11893       -4.20377
H          0.74085       -0.75660        0.93172
H          0.40873        0.65201       -0.08528
H          1.13201        0.84633        1.55619
H          1.94610        2.71667        0.66072
H          2.83718        4.59310       -0.62738
H          4.97483        1.88179       -3.17168
H          4.82856       -0.23691       -2.63680
H          3.63351        5.30880       -2.90050
H          5.65207        4.26936       -4.26411
23 23 23 23 23 23 23 23 23 23 23 23 23 23 23 23 23 23 23 23 23 23 23 23 23 23 23 23 23 23 23 23 23 23 23 23 23 23 23 23 23 23 23 23 23 23 23 23 23 23 23 23 23 23 23 23 23 23 23 23 23 23 23 23
COC1(=CC=C(C=C(O)1)C(C(=O)[O-])O)
InChI=1S/C9H10O5/c1-14-7-3-2-5(4-6(7)10)8(11)9(12)13/h2-4,8,10-11H,1H3,(H,12,13)/p-1
