20
metacyc CPD-17141  -784.14113832 -784.14113832 -784.14113832 -784.14113832 -784.14113832 -784.14113832 -784.14113832 -784.14113832 -784.14113832 -784.14113832 -784.14113832 -784.14113832 -784.14113832 -784.14113832 -784.14113832
C          0.98154        0.16005       -0.16741
O          0.73177        0.15516       -1.41038
O          0.21060        0.33398        0.81766
C          2.49432        0.05255        0.15389
O          3.24032        0.74105       -0.88561
C          2.94038        0.57002        1.51176
C          2.61961        2.01985        1.87533
O          1.33083        2.51376        1.51854
C          2.71807        1.98491        3.39265
O          4.03415        2.29033        3.85540
C          2.31172        0.55225        3.70498
O          2.03857        0.11653        4.81585
O          2.45796       -0.23482        2.59808
H          2.74613       -1.01154        0.07048
H          2.56845        0.80934       -1.60894
H          4.03474        0.46182        1.54280
H          3.35427        2.69614        1.42575
H          0.69964        1.75101        1.43270
H          2.00765        2.67514        3.85835
H          4.61139        1.54431        3.61655
20 20 20 20 20 20 20 20 20 20 20 20 20 20 20 20 20 20 20 20 20 20 20 20 20 20 20 20 20 20 20 20 20 20 20 20 20 20 20 20 20 20 20 20 20 20 20 20 20 20 20 20 20 20 20
C(=O)([O-])C(O)C1(C(O)C(O)C(=O)O1)
InChI=1S/C6H8O7/c7-1-2(8)6(12)13-4(1)3(9)5(10)11/h1-4,7-9H,(H,10,11)/p-1/t1-,2-,3?,4+/m1/s1
