28
metacyc CPD-19917  -541.60909312 -541.60909312 -541.60909312 -541.60909312 -541.60909312 -541.60909312 -541.60909312 -541.60909312 -541.60909312 -541.60909312 -541.60909312 -541.60909312 -541.60909312 -541.60909312 -541.60909312
C          1.04005        0.13423        0.08723
C          0.35222        1.40399       -0.42432
C         -0.91651        1.79712        0.33340
C         -1.03750        3.27860       -0.01447
C          0.44083        3.72479       -0.03202
C          0.80437        4.83349       -0.97796
C          1.65108        4.74520       -2.00957
O          2.04661        5.80659       -2.82403
C          1.57828        7.06459       -2.54109
N          0.65859        7.17016       -1.53107
C          0.23696        6.16745       -0.70971
O         -0.53920        6.36479        0.21650
O          1.96323        8.05172       -3.15920
O          1.23356        2.54260       -0.32356
O         -1.69182        3.43166       -1.27673
O         -0.77707        1.61097        1.74287
O          2.23458       -0.15947       -0.63872
H          0.36999       -0.72559       -0.01031
H          1.33301        0.23135        1.13639
H          0.14206        1.29165       -1.49495
H         -1.77214        1.20375       -0.00236
H         -1.61015        3.83762        0.73244
H          0.73784        4.01903        0.98325
H          2.16435        3.84145       -2.31500
H          0.31805        8.09838       -1.33806
H         -1.11585        3.11671       -1.99081
H          0.08003        1.97221        2.03386
H          2.11413        0.10700       -1.56445
28 28 28 28 28 28 28 28 28 28 28 28 28 28 28 28 28 28 28 28 28 28 28 28 28 28 28 28 28 28 28 28 28 28 28 28 28 28 28 28 28 28 28 28 28 28 28 28 28 28 28 28 28 28 28 28 28 28 28 28 28 28 28 28 28 28 28 28 28 28 28 28 28 28 28 28 28 28 28
C(C2(C(C(C(C1(=COC(NC1=O)=O))O2)O)O))O
InChI=1S/C9H11NO7/c11-1-4-5(12)6(13)7(17-4)3-2-16-9(15)10-8(3)14/h2,4-7,11-13H,1H2,(H,10,14,15)/t4-,5-,6-,7+/m1/s1
