22
metacyc CPD-13904  -409.74081452 -409.74081452 -409.74081452 -409.74081452 -409.74081452 -409.74081452 -409.74081452 -409.74081452 -409.74081452 -409.74081452 -409.74081452 -409.74081452 -409.74081452 -409.74081452 -409.74081452
C          5.51671        4.63397        1.87223
O          4.85468        4.54409        2.90284
C          5.33927        3.77461        0.67095
C          5.87333        4.37719       -0.63239
C          5.61712        3.77458       -2.05724
C          6.54362        4.57529       -3.06127
O          6.71407        5.80970       -2.79336
O          6.99060        3.93395       -4.05739
N          5.81471        2.28607       -2.18907
C          5.83286        1.51760       -1.00679
C          7.28156        1.09935       -0.40094
O          8.21267        1.08919       -1.26652
O          7.33255        0.83756        0.83521
C          4.73174        1.61643       -0.23281
C          4.82578        2.54685        0.87728
H          6.29647        5.40542        1.76537
H          6.95708        4.49351       -0.49471
H          5.46089        5.39712       -0.66258
H          4.58278        3.99122       -2.35330
H          6.73124        2.15816       -2.66049
H          3.77785        1.77584       -0.73920
H          4.53058        2.18799        1.85797
22 22 22 22 22 22 22 22 22 22 22 22 22 22 22 22 22 22 22 22 22 22 22 22 22 22 22 22 22 22 22 22 22 22 22 22 22 22 22 22 22 22 22 22 22 22 22 22 22 22 22 22 22 22 22 22 22 22 22 22 22
C(=O)C1(CC(C([O-])=O)NC(C(=O)[O-])=CC=1)
InChI=1S/C9H9NO5/c11-4-5-1-2-6(8(12)13)10-7(3-5)9(14)15/h1-2,4,7,10H,3H2,(H,12,13)(H,14,15)/p-2
