14
metacyc CPD-12278  -344.87699472 -344.87699472 -344.87699472 -344.87699472 -344.87699472 -344.87699472 -344.87699472 -344.87699472 -344.87699472 -344.87699472 -344.87699472 -344.87699472 -344.87699472 -344.87699472 -344.87699472
C          1.02385        0.10150       -0.00545
C          0.33760        1.01710        0.93572
O          0.92898        1.76555        1.70507
N         -1.02869        0.93359        0.84988
C         -1.86311        1.68579        1.62308
O         -3.08539        1.61896        1.55439
C          2.36223        0.04692       -0.06156
C          3.06422       -0.89451       -1.02928
O          2.31055       -1.60098       -1.75549
O          4.32365       -0.84232       -0.97563
H          0.42756       -0.53014       -0.65474
H         -1.46547        0.30007        0.19866
H         -1.34709        2.36528        2.32156
H          2.98643        0.66611        0.57493
14 14 14 14 14 14 14 14 14 14 14 14 14 14 14 14 14 14 14 14 14 14 14 14 14 14 14 14 14 14 14 14 14 14 14 14 14
C(C(=O)NC=O)=CC(=O)[O-]
InChI=1S/C5H5NO4/c7-3-6-4(8)1-2-5(9)10/h1-3H,(H,9,10)(H,6,7,8)/p-1/b2-1-
