22
metacyc CPD-15813  -79.314238672 -79.314238672 -79.314238672 -79.314238672 -79.314238672 -79.314238672 -79.314238672 -79.314238672 -79.314238672 -79.314238672 -79.314238672 -79.314238672 -79.314238672 -79.314238672 -79.314238672
C          1.00924        0.22462        0.18753
C          2.51992        0.10708       -0.01877
C          2.99860       -1.32346       -0.31223
O          2.48860       -2.24596        0.65063
C          2.62469       -1.73188       -1.74675
O          3.15488       -3.02075       -2.06105
C          3.12966       -0.69556       -2.73775
C          2.62340        0.68385       -2.35031
O          3.18490        1.65654       -3.21125
O          2.99121        1.02129       -1.01901
H          0.67752       -0.37553        1.04101
H          0.44463       -0.10173       -0.69124
H          0.73207        1.26781        0.36972
H          2.98241        0.42587        0.92599
H          4.09268       -1.35429       -0.22253
H          1.88008       -2.85742        0.19564
H          1.53743       -1.83294       -1.83712
H          4.07582       -3.06250       -1.74645
H          2.82409       -0.94856       -3.75997
H          4.22808       -0.70793       -2.75568
H          1.53668        0.75058       -2.46199
H          4.13763        1.65561       -3.01652
22 22 22 22 22 22 22 22 22 22 22 22 22 22 22 22 22 22 22 22 22 22 22 22 22 22 22 22 22 22 22 22 22 22 22 22 22 22 22 22 22 22 22 22 22 22 22 22 22 22 22 22 22 22 22 22 22 22 22 22 22
CC1(C(O)C(O)CC(O)O1)
InChI=1S/C6H12O4/c1-3-6(9)4(7)2-5(8)10-3/h3-9H,2H2,1H3/t3-,4-,5-,6+/m0/s1
