19
metacyc CPD-17564  -110.50847744 -110.50847744 -110.50847744 -110.50847744 -110.50847744 -110.50847744 -110.50847744 -110.50847744 -110.50847744 -110.50847744 -110.50847744 -110.50847744 -110.50847744 -110.50847744 -110.50847744
C          1.31370       -0.29746        0.53135
O          2.54202       -0.00191       -0.13230
C          2.98892       -0.98971       -0.97049
C          3.71542       -0.56297       -2.08922
O          3.94822        0.76905       -2.29340
C          4.20566       -1.46339       -3.02932
C          3.97662       -2.82687       -2.82877
N          4.45859       -3.80151       -3.81640
O          5.04831       -3.36880       -4.81585
O          4.23739       -5.00049       -3.59247
C          3.28625       -3.27967       -1.69244
C          2.79794       -2.35568       -0.76227
H          0.98690        0.60800        1.05039
H          1.44489       -1.07876        1.28651
H          0.53520       -0.57365       -0.18872
H          3.56243        1.22441       -1.51927
H          4.74905       -1.09188       -3.89362
H          3.12375       -4.34074       -1.51728
H          2.28804       -2.73318        0.11825
19 19 19 19 19 19 19 19 19 19 19 19 19 19 19 19 19 19 19 19 19 19 19 19 19 19 19 19 19 19 19 19 19 19 19 19 19 19 19 19 19 19 19 19 19 19 19 19 19 19 19 19
COC1(=C(O)C=C([N+]([O-])=O)C=C1)
InChI=1S/C7H7NO4/c1-12-7-3-2-5(8(10)11)4-6(7)9/h2-4,9H,1H3
