13
metacyc CPD-660  -674.30917184 -674.30917184 -674.30917184 -674.30917184 -674.30917184 -674.30917184 -674.30917184 -674.30917184 -674.30917184 -674.30917184 -674.30917184 -674.30917184 -674.30917184 -674.30917184 -674.30917184
C          0.80679       -0.07140       -0.08918
O          0.20073        1.02702        0.07645
O          0.31152       -1.19100       -0.43125
C          2.32954       -0.03315        0.00352
C          2.87424        0.51091        1.31709
O          2.61720       -0.44326        2.38356
C          4.43325        0.63706        1.16560
O          4.88791        1.71768        0.69585
O          5.07238       -0.37987        1.60210
H          2.67544        0.59276       -0.82986
H          2.72223       -1.04226       -0.17368
H          2.43213        1.47091        1.60034
H          3.45094       -0.96832        2.37610
13 13 13 13 13 13 13 13 13 13 13 13 13 13 13 13 13 13 13 13 13 13 13 13 13 13 13 13 13 13 13 13 13 13
C(=O)([O-])CC(O)C([O-])=O
InChI=1S/C4H6O5/c5-2(4(8)9)1-3(6)7/h2,5H,1H2,(H,6,7)(H,8,9)/p-2/t2-/m1/s1
