16
metacyc CPD-10705  -315.235505296 -315.235505296 -315.235505296 -315.235505296 -315.235505296 -315.235505296 -315.235505296 -315.235505296 -315.235505296 -315.235505296 -315.235505296 -315.235505296 -315.235505296 -315.235505296 -315.235505296
C          1.13850       -0.17916       -0.29464
N          2.57303       -0.17776       -0.04648
C          3.01493        0.91795        0.93013
C          2.47283        0.64524        2.36312
C          2.58476        1.63493        3.55198
O          2.58891        2.88118        3.30694
O          2.48201        1.10215        4.71188
C          4.59673        1.08896        0.93424
O          5.27647        0.38783        1.75136
O          5.06966        1.92777        0.08785
H          0.90499       -0.74489       -1.20390
H          0.71848        0.82268       -0.43300
H          0.58276       -0.66608        0.51429
H          2.61716        1.88940        0.60215
H          2.86441       -0.32263        2.70532
H          1.38512        0.50556        2.28549
16 16 16 16 16 16 16 16 16 16 16 16 16 16 16 16 16 16 16 16 16 16 16 16 16 16 16 16 16 16 16 16 16 16 16 16 16 16 16 16 16 16 16
C[N+]C(CC(=O)[O-])C(=O)[O-]
InChI=1S/C5H9NO4/c1-6-3(5(9)10)2-4(7)8/h3,6H,2H2,1H3,(H,7,8)(H,9,10)/p-1/t3-/m1/s1
