22
metacyc CPD-12524  -708.65228064 -708.65228064 -708.65228064 -708.65228064 -708.65228064 -708.65228064 -708.65228064 -708.65228064 -708.65228064 -708.65228064 -708.65228064 -708.65228064 -708.65228064 -708.65228064 -708.65228064
C          0.99806        0.15925        0.07274
O          0.35511       -0.92721       -0.03992
O          0.55633        1.32791        0.23855
C          2.54704        0.01580       -0.03176
C          3.00609       -1.41347       -0.36535
C          2.67954       -1.77577       -1.83048
C          3.15102       -0.66673       -2.77743
C          2.64146        0.70836       -2.31840
O          3.12182        0.94862       -0.99410
O          3.19780        1.70820       -3.17325
O          4.61020       -0.63285       -2.77164
O          3.33558       -3.00392       -2.20629
O          2.47546       -2.38093        0.54546
H          2.94076        0.29298        0.95366
H          4.09512       -1.46420       -0.23936
H          1.60773       -1.95305       -1.95834
H          2.86423       -0.87971       -3.81241
H          1.55180        0.78988       -2.37342
H          4.09396        1.39479       -3.38272
H          4.85029       -0.13610       -1.96057
H          4.28374       -2.78244       -2.26835
H          1.49450       -2.25373        0.48214
22 22 22 22 22 22 22 22 22 22 22 22 22 22 22 22 22 22 22 22 22 22 22 22 22 22 22 22 22 22 22 22 22 22 22 22 22 22 22 22 22 22 22 22 22 22 22 22 22 22 22 22 22 22 22 22 22 22 22 22 22
C([O-])(=O)C1(C(C(C(C(O1)O)O)O)O)
InChI=1S/C6H10O7/c7-1-2(8)4(5(10)11)13-6(12)3(1)9/h1-4,6-9,12H,(H,10,11)/p-1/t1-,2+,3+,4-,6+/m0/s1
