19
metacyc CPD-5821  -666.07803048 -666.07803048 -666.07803048 -666.07803048 -666.07803048 -666.07803048 -666.07803048 -666.07803048 -666.07803048 -666.07803048 -666.07803048 -666.07803048 -666.07803048 -666.07803048 -666.07803048
C          1.11737        0.07706        0.33788
C          0.27544       -0.83397        1.29965
O         -0.78499       -0.10591        1.89547
N          0.98493       -1.47892        2.36748
C          1.21370       -2.79348        2.09699
O          1.97311       -3.49909        2.74634
N          0.45478       -3.19579        1.03193
C         -0.07622       -2.11269        0.55385
N         -0.88730       -2.23504       -0.53794
C         -1.68577       -1.41049       -1.28470
N         -1.73597       -0.09739       -0.99612
O         -2.40093       -1.87312       -2.17082
O          0.47227        1.11659       -0.02906
O          2.26898       -0.30643        0.01022
H         -0.83129        0.70245        1.33760
H          1.65116       -0.97869        2.93335
H         -0.95966       -3.19430       -0.84352
H         -0.87174        0.41266       -0.78530
H         -2.30061        0.42960       -1.64784
19 19 19 19 19 19 19 19 19 19 19 19 19 19 19 19 19 19 19 19 19 19 19 19 19 19 19 19 19 19 19 19 19 19 19 19 19 19 19 19 19 19 19 19 19 19 19 19 19 19 19 19
C(C1(O)(NC(=O)N=C1NC(N)=O))(=O)[O-]
InChI=1S/C5H6N4O5/c6-3(12)7-1-5(14,2(10)11)9-4(13)8-1/h14H,(H,10,11)(H4,6,7,8,9,12,13)/p-1/t5-/m0/s1
