11
metacyc CPD-14545  -40.068657576 -40.068657576 -40.068657576 -40.068657576 -40.068657576 -40.068657576 -40.068657576 -40.068657576 -40.068657576 -40.068657576 -40.068657576 -40.068657576 -40.068657576 -40.068657576 -40.068657576
C         -1.13044        0.02433       -0.00057
N         -0.36509        1.16568       -0.00077
C          0.87518        0.72602        0.00087
N          2.05873        1.53114        0.00152
O          3.13482        0.91226        0.00348
O          1.92826        2.76033        0.00011
N          0.94925       -0.63740        0.00203
C         -0.33826       -1.10405        0.00121
H         -2.21284        0.07483       -0.00167
H          1.80661       -1.17638        0.00330
H         -0.57249       -2.15976        0.00193
11 11 11 11 11 11 11 11 11 11 11 11 11 11 11 11 11 11 11 11 11 11 11 11 11 11 11 11
C1(N=C([N+]([O-])=O)NC=1)
InChI=1S/C3H3N3O2/c7-6(8)3-4-1-2-5-3/h1-2H,(H,4,5)
