20
metacyc CPD-9143  -468.00274256 -468.00274256 -468.00274256 -468.00274256 -468.00274256 -468.00274256 -468.00274256 -468.00274256 -468.00274256 -468.00274256 -468.00274256 -468.00274256 -468.00274256 -468.00274256 -468.00274256
C          1.17440       -0.47139        0.04536
C          2.60594       -0.02976       -0.13412
O          3.18882        0.54943        0.78745
C          3.32294       -0.35925       -1.39128
N          2.52626       -0.66231       -2.54554
O          2.56020       -1.81920       -2.98195
O          1.77026        0.23325       -2.94805
C          4.66424       -0.39356       -1.44542
C          5.53719       -0.67566       -2.56818
C          6.88660       -0.66676       -2.55331
O          7.66200       -0.38181       -1.43451
C          7.66427       -0.99172       -3.89721
O          6.99217       -0.82828       -4.95769
O          8.85713       -1.38645       -3.75253
H          0.85112       -0.21528        1.06015
H          1.09761       -1.55558       -0.06951
H          0.51420        0.04517       -0.65354
H          5.17112       -0.16041       -0.51335
H          5.06456       -0.91438       -3.52369
H          7.10225       -0.22953       -0.66712
20 20 20 20 20 20 20 20 20 20 20 20 20 20 20 20 20 20 20 20 20 20 20 20 20 20 20 20 20 20 20 20 20 20 20 20 20 20 20 20 20 20 20 20 20 20 20 20 20 20 20 20 20 20 20
CC(=O)C([N+]([O-])=O)=CC=C(O)C([O-])=O
InChI=1S/C7H7NO6/c1-4(9)5(8(13)14)2-3-6(10)7(11)12/h2-3,10H,1H3,(H,11,12)/p-1/b5-2+,6-3+
