18
metacyc CPD-9421  -730.03662096 -730.03662096 -730.03662096 -730.03662096 -730.03662096 -730.03662096 -730.03662096 -730.03662096 -730.03662096 -730.03662096 -730.03662096 -730.03662096 -730.03662096 -730.03662096 -730.03662096
C          1.01712       -0.04138        0.00399
C          2.52074        0.06824        0.10006
C          3.24372       -1.06841       -0.71770
O          4.19724       -0.73496       -1.47998
O          2.70909       -2.22432       -0.62505
C          3.12344        1.08910        0.77953
C          2.28435        2.19686        1.51616
O          1.25248        1.81551        2.16319
O          2.65162        3.39302        1.30856
C          4.63897        1.28628        0.78449
C          5.36893        1.97424        1.95024
O          5.24307        1.46439        3.10798
O          6.21999        2.87272        1.61892
H          0.70047       -0.78780       -0.72919
H          0.57869        0.90598       -0.32825
H          0.58316       -0.33349        0.96560
H          4.89484        1.83074       -0.13421
H          5.12670        0.30624        0.71280
18 18 18 18 18 18 18 18 18 18 18 18 18 18 18 18 18 18 18 18 18 18 18 18 18 18 18 18 18 18 18 18 18 18 18 18 18 18 18 18 18 18 18 18 18 18 18 18 18
CC(C(=O)[O-])=C(C(=O)[O-])CC(=O)[O-]
InChI=1S/C7H8O6/c1-3(6(10)11)4(7(12)13)2-5(8)9/h2H2,1H3,(H,8,9)(H,10,11)(H,12,13)/p-3/b4-3+
