15
metacyc CPD-15508  -145.826136072 -145.826136072 -145.826136072 -145.826136072 -145.826136072 -145.826136072 -145.826136072 -145.826136072 -145.826136072 -145.826136072 -145.826136072 -145.826136072 -145.826136072 -145.826136072 -145.826136072
C          1.02266       -0.02026       -0.09017
C          2.50551       -0.16565        0.04422
O          3.19066        1.03461        0.18706
C          4.55673        0.99880        0.33693
C          5.29551       -0.11324        0.34981
C          4.60012       -1.39936        0.18690
O          5.19589       -2.47190        0.17961
C          3.12214       -1.35810        0.03294
O          2.44870       -2.55586       -0.11257
H          0.72600        1.03338       -0.05528
H          0.50863       -0.53509        0.72801
H          0.67569       -0.43085       -1.04377
H          4.96031        1.99653        0.44570
H          6.36882       -0.12092        0.47282
H          3.14893       -3.24221       -0.08706
15 15 15 15 15 15 15 15 15 15 15 15 15 15 15 15 15 15 15 15 15 15 15 15 15 15 15 15 15 15 15 15 15 15 15 15 15 15 15 15
CC1(OC=CC(=O)C(O)=1)
InChI=1S/C6H6O3/c1-4-6(8)5(7)2-3-9-4/h2-3,8H,1H3
