18
metacyc CPD-787  -409.91288152 -409.91288152 -409.91288152 -409.91288152 -409.91288152 -409.91288152 -409.91288152 -409.91288152 -409.91288152 -409.91288152 -409.91288152 -409.91288152 -409.91288152 -409.91288152 -409.91288152
C          1.17749       -0.52496        0.44130
O          0.36708        0.23195        1.04813
O          1.00177       -1.72314        0.06136
C          2.52514        0.08214        0.02764
C          3.12598        1.08215        0.98540
C          4.45279        1.22900        1.14145
C          5.06261        2.20451        2.02841
C          6.38081        2.43590        2.20532
O          7.38064        1.73519        1.53142
C          6.85146        3.55594        3.22574
O          5.99123        4.44257        3.51066
O          8.04184        3.44460        3.64813
H          2.35870        0.58239       -0.93410
H          3.23418       -0.73725       -0.14908
H          2.42565        1.70212        1.54210
H          5.10055        0.58962        0.55318
H          4.36507        2.81636        2.60283
H          6.95540        1.03702        1.01960
18 18 18 18 18 18 18 18 18 18 18 18 18 18 18 18 18 18 18 18 18 18 18 18 18 18 18 18 18 18 18 18 18 18 18 18 18 18 18 18 18 18 18 18 18 18 18 18 18
C([O-])(=O)CC=CC=C(O)C(=O)[O-]
InChI=1S/C7H8O5/c8-5(7(11)12)3-1-2-4-6(9)10/h1-3,8H,4H2,(H,9,10)(H,11,12)/p-2/b2-1-,5-3-
