19
metacyc CPD-16723  -121.17294952 -121.17294952 -121.17294952 -121.17294952 -121.17294952 -121.17294952 -121.17294952 -121.17294952 -121.17294952 -121.17294952 -121.17294952 -121.17294952 -121.17294952 -121.17294952 -121.17294952
C          0.91733       -0.03435        0.14508
O          0.25526       -1.20044       -0.33233
C          2.39543       -0.13159       -0.06244
C          3.09006       -1.16990       -0.60008
C          4.61583       -1.19313       -0.71752
O          5.06300       -2.45951       -0.25225
C          5.18182       -0.11957        0.14256
O          5.79953        1.11222       -0.09079
C          4.43994        1.18583       -0.43316
C          3.16696        1.11514        0.31640
O          2.77506        1.97211        1.09080
H          0.67199        0.09492        1.20435
H          0.51573        0.82044       -0.40855
H          0.38955       -1.89642        0.33268
H          2.56829       -2.05485       -0.95729
H          4.91902       -1.09484       -1.76538
H          4.73975       -2.58171        0.65641
H          5.09662       -0.37181        1.19527
H          4.28411        1.32825       -1.49792
19 19 19 19 19 19 19 19 19 19 19 19 19 19 19 19 19 19 19 19 19 19 19 19 19 19 19 19 19 19 19 19 19 19 19 19 19 19 19 19 19 19 19 19 19 19 19 19 19 19 19 19
C(O)C1(=CC(O)C2(OC(C(=O)1)2))
InChI=1S/C7H8O4/c8-2-3-1-4(9)6-7(11-6)5(3)10/h1,4,6-9H,2H2/t4-,6+,7-/m1/s1
