12
metacyc CPD-2421  -61.518510968 -61.518510968 -61.518510968 -61.518510968 -61.518510968 -61.518510968 -61.518510968 -61.518510968 -61.518510968 -61.518510968 -61.518510968 -61.518510968 -61.518510968 -61.518510968 -61.518510968
C          0.99644        0.06470       -0.05241
N          2.46547        0.06950       -0.04790
O          3.08026       -0.88634       -0.62339
N          2.99185        1.06188        0.54217
C          4.44984        0.98487        0.52759
O          5.07511        2.07934        1.18938
H          0.64055       -0.80036       -0.61778
H          0.64478        0.98543       -0.52502
H          0.64680        0.00150        0.98128
H          4.82969        0.98594       -0.50072
H          4.80126        0.07635        1.02945
H          4.53290        2.85217        0.96197
12 12 12 12 12 12 12 12 12 12 12 12 12 12 12 12 12 12 12 12 12 12 12 12 12 12 12 12 12 12 12
C[N+]([O-])=NCO
InChI=1S/C2H6N2O2/c1-4(6)3-2-5/h5H,2H2,1H3/b4-3-
