20
metacyc CPD-1069  -566.27481912 -566.27481912 -566.27481912 -566.27481912 -566.27481912 -566.27481912 -566.27481912 -566.27481912 -566.27481912 -566.27481912 -566.27481912 -566.27481912 -566.27481912 -566.27481912 -566.27481912
C          1.01626        2.25281        0.50517
O          0.39023        1.59762       -0.37439
O          0.54328        3.07769        1.34897
C          2.53874        2.11479        0.54662
C          3.26803        1.09901        0.04341
C          4.74488        1.05653        0.07022
C          5.43823       -0.10253       -0.03073
C          5.10658       -1.59877       -0.07101
O          3.90163       -1.95804       -0.07539
O          6.13811       -2.34797       -0.10805
C          5.52768        2.32235        0.00245
C          6.74760        2.54747        0.52478
C          7.50918        3.86829        0.42221
O          6.96221        4.81503       -0.20978
O          8.64548        3.85819        0.98983
H          3.04111        2.93804        1.04836
H          2.75518        0.26053       -0.42544
H          6.52544       -0.01888       -0.09904
H          5.02401        3.14120       -0.51153
H          7.26026        1.76108        1.07040
20 20 20 20 20 20 20 20 20 20 20 20 20 20 20 20 20 20 20 20 20 20 20 20 20 20 20 20 20 20 20 20 20 20 20 20 20 20 20 20 20 20 20 20 20 20 20 20 20 20 20 20 20 20 20
C([O-])(=O)C=CC(=CC([O-])=O)C=CC([O-])=O
InChI=1S/C9H8O6/c10-7(11)3-1-6(5-9(14)15)2-4-8(12)13/h1-5H,(H,10,11)(H,12,13)(H,14,15)/p-3/b3-1-,4-2-
