14
metacyc CPD-19882  -561.89638864 -561.89638864 -561.89638864 -561.89638864 -561.89638864 -561.89638864 -561.89638864 -561.89638864 -561.89638864 -561.89638864 -561.89638864 -561.89638864 -561.89638864 -561.89638864 -561.89638864
C          1.11442       -0.00619       -0.03696
C          0.53508        1.23936       -0.72436
C          1.03836        1.23312       -2.17168
C          0.03856        1.19281       -3.31775
O          0.47772        1.19740       -4.50669
O         -1.18210        1.14887       -2.95068
O          2.24330        1.20236       -2.44637
O         -0.85873        1.28702       -0.45578
O          2.54131        0.02041        0.05237
H          0.81891       -0.91933       -0.56703
H          0.72413       -0.09127        0.98300
H          0.96911        2.13732       -0.26928
H         -1.31080        1.23233       -1.33981
H          2.86849        0.25778       -0.84285
14 14 14 14 14 14 14 14 14 14 14 14 14 14 14 14 14 14 14 14 14 14 14 14 14 14 14 14 14 14 14 14 14 14 14 14 14
C(C(C(C(=O)[O-])=O)O)O
InChI=1S/C4H6O5/c5-1-2(6)3(7)4(8)9/h2,5-6H,1H2,(H,8,9)/p-1/t2-/m0/s1
