15
metacyc CPD-2461  -429.99599784 -429.99599784 -429.99599784 -429.99599784 -429.99599784 -429.99599784 -429.99599784 -429.99599784 -429.99599784 -429.99599784 -429.99599784 -429.99599784 -429.99599784 -429.99599784 -429.99599784
C          0.96990        0.05832        0.12720
C          2.49797        0.02888        0.09834
C          3.01579       -0.39268       -1.28843
C          2.62734       -1.77845       -1.82170
O          2.42003       -2.69089       -0.97096
O          2.57207       -1.86726       -3.08736
C          3.11003        1.38852        0.51924
O          2.29690        2.32235        0.79404
O          4.37506        1.42652        0.59708
H          0.54438       -0.92231       -0.10637
H          0.57102        0.77842       -0.59593
H          0.60297        0.34220        1.11983
H          2.83303       -0.70582        0.84217
H          4.11374       -0.37689       -1.28553
H          2.70660        0.36068       -2.02558
15 15 15 15 15 15 15 15 15 15 15 15 15 15 15 15 15 15 15 15 15 15 15 15 15 15 15 15 15 15 15 15 15 15 15 15 15 15 15 15
CC(CC([O-])=O)C([O-])=O
InChI=1S/C5H8O4/c1-3(5(8)9)2-4(6)7/h3H,2H2,1H3,(H,6,7)(H,8,9)/p-2
