24
metacyc CPD-17512  -13.764267976 -13.764267976 -13.764267976 -13.764267976 -13.764267976 -13.764267976 -13.764267976 -13.764267976 -13.764267976 -13.764267976 -13.764267976 -13.764267976 -13.764267976 -13.764267976 -13.764267976
C          2.56386        1.37041       -3.55027
O          2.13583        2.40258       -4.15550
O          2.97708        0.29076       -4.07454
C          2.60135        1.40273       -2.01122
O          2.23452        2.43085       -1.43793
C          3.12163        0.19137       -1.26267
C          4.65817        0.18220       -1.18462
C          5.16994        1.32456       -0.35139
C          5.79524        1.20125        0.82350
C          6.07015       -0.10213        1.48686
O          7.47353       -0.16310        1.72602
C          5.62039       -1.35750        0.73285
C          5.20221       -1.18978       -0.73408
H          2.74446       -0.70454       -1.76918
H          2.67129        0.18945       -0.26260
H          5.04091        0.34225       -2.20328
H          4.98869        2.32934       -0.74596
H          6.09474        2.09670        1.35795
H          5.58831       -0.10032        2.47398
H          7.89945        0.00988        0.86930
H          4.77542       -1.79730        1.27623
H          6.41706       -2.11320        0.77007
H          4.47866       -1.98223       -0.97318
H          6.07852       -1.41886       -1.35548
24 24 24 24 24 24 24 24 24 24 24 24 24 24 24 24 24 24 24 24 24 24 24 24 24 24 24 24 24 24 24 24 24 24 24 24 24 24 24 24 24 24 24 24 24 24 24 24 24 24 24 24 24 24 24 24 24 24 24 24 24 24 24 24 24 24 24
C(=O)([O-])C(=O)CC1(C=CC(O)CC1)
InChI=1S/C9H12O4/c10-7-3-1-6(2-4-7)5-8(11)9(12)13/h1,3,6-7,10H,2,4-5H2,(H,12,13)/p-1/t6-,7+/m1/s1
