29
metacyc CPD-19395  -342.27785208 -342.27785208 -342.27785208 -342.27785208 -342.27785208 -342.27785208 -342.27785208 -342.27785208 -342.27785208 -342.27785208 -342.27785208 -342.27785208 -342.27785208 -342.27785208 -342.27785208
C          1.31976       -0.12451        0.02306
N          0.67004       -1.23808        0.69563
C         -0.69465       -1.36359        0.73918
C         -1.21788       -2.49845        1.60214
C         -0.95302       -3.92477        1.10492
C          0.49354       -4.41713        1.14733
C          1.11031       -4.18603        2.54761
O          0.93575       -5.06224        3.44154
O          1.68065       -3.04930        2.66303
N          0.55449       -5.84758        0.82680
O         -1.45876       -0.57138        0.18747
C          1.67342       -0.32518       -1.46090
N          1.35166       -1.54659       -1.97579
C          1.54107       -1.96012       -3.36551
C          0.96130       -3.36238       -3.68452
O          0.34657       -3.92018       -2.72759
O          1.16167       -3.77324       -4.86596
O          2.23160        0.56305       -2.10852
H          2.25023        0.07841        0.56310
H          0.67559        0.76068        0.08773
H          1.22839       -1.81535        1.34105
H         -2.30744       -2.36615        1.64924
H         -0.86378       -2.35084        2.62773
H         -1.32825       -4.01723        0.07753
H         -1.57052       -4.59339        1.72128
H          1.10105       -3.88992        0.40470
H          0.83054       -2.21689       -1.41328
H          2.61593       -1.94696       -3.57361
H          1.05704       -1.21691       -4.00832
29 29 29 29 29 29 29 29 29 29 29 29 29 29 29 29 29 29 29 29 29 29 29 29 29 29 29 29 29 29 29 29 29 29 29 29 29 29 29 29 29 29 29 29 29 29 29 29 29 29 29 29 29 29 29 29 29 29 29 29 29 29 29 29 29 29 29 29 29 29 29 29 29 29 29 29 29 29 29 29 29 29
C(NC(CCC(C(=O)[O-])[N+])=O)C(NCC(=O)[O-])=O
InChI=1S/C9H15N3O6/c10-5(9(17)18)1-2-6(13)11-3-7(14)12-4-8(15)16/h5H,1-4,10H2,(H,11,13)(H,12,14)(H,15,16)(H,17,18)/p-1/t5-/m0/s1
