19
metacyc CPD-12489  -227.535484624 -227.535484624 -227.535484624 -227.535484624 -227.535484624 -227.535484624 -227.535484624 -227.535484624 -227.535484624 -227.535484624 -227.535484624 -227.535484624 -227.535484624 -227.535484624 -227.535484624
C          1.01671        0.04126       -0.02713
N          2.46609        0.03110       -0.01973
C          3.18888       -1.12708        0.00687
C          4.52415       -1.14818        0.00788
N          4.97719       -2.43505        0.03359
C          3.86299       -3.28477        0.04733
O          3.85127       -4.49955        0.06511
N          2.74938       -2.42166        0.03195
C          5.28905        0.09490       -0.02354
O          6.51289        0.11957       -0.02274
N          4.50009        1.22020       -0.05742
C          3.12044        1.26543       -0.06378
O          2.53928        2.34730       -0.10846
H          0.59128       -0.95843        0.08530
H          0.67223        0.47672       -0.97063
H          0.65999        0.67113        0.79463
H          5.94297       -2.72865        0.03599
H          1.79994       -2.75559        0.03340
H          4.97475        2.10992       -0.08823
19 19 19 19 19 19 19 19 19 19 19 19 19 19 19 19 19 19 19 19 19 19 19 19 19 19 19 19 19 19 19 19 19 19 19 19 19 19 19 19 19 19 19 19 19 19 19 19 19 19 19 19
CN2(C1(=C(NC(=O)N1)C(=O)NC(=O)2))
InChI=1S/C6H6N4O3/c1-10-3-2(7-5(12)8-3)4(11)9-6(10)13/h1H3,(H2,7,8,12)(H,9,11,13)
