28
metacyc CPD-15665  -556.08970792 -556.08970792 -556.08970792 -556.08970792 -556.08970792 -556.08970792 -556.08970792 -556.08970792 -556.08970792 -556.08970792 -556.08970792 -556.08970792 -556.08970792 -556.08970792 -556.08970792
C          2.69285       -0.83439        2.26194
C          3.35238       -0.29340        1.02844
N          3.18123        1.00196        0.67200
C          2.31323        2.07506        1.22584
C          2.84783        3.45822        0.77175
O          4.23947        3.53107        1.08260
O          2.77083        3.63022       -0.64367
C          1.44803        3.44886       -1.21770
C          0.79577        2.13232       -0.78041
C          0.85595        1.92009        0.74958
O         -0.01692        2.77341        1.50760
O         -0.51261        1.89790       -1.30952
C          0.43994        4.57396       -0.89898
O          0.49891        5.06500        0.26408
O         -0.45650        4.72934       -1.77883
O          4.06273       -1.01372        0.32946
H          2.18697       -0.07332        2.85378
H          3.46273       -1.29664        2.88878
H          1.96656       -1.59716        1.96887
H          3.68193        1.25256       -0.17405
H          2.37649        2.01905        2.31820
H          2.36843        4.27816        1.30797
H          4.61800        3.75914        0.21636
H          1.58809        3.44355       -2.30586
H          1.40790        1.33511       -1.22156
H          0.50312        0.90439        0.96429
H          0.06708        3.71005        1.19860
H         -0.91551        2.77375       -1.51218
28 28 28 28 28 28 28 28 28 28 28 28 28 28 28 28 28 28 28 28 28 28 28 28 28 28 28 28 28 28 28 28 28 28 28 28 28 28 28 28 28 28 28 28 28 28 28 28 28 28 28 28 28 28 28 28 28 28 28 28 28 28 28 28 28 28 28 28 28 28 28 28 28 28 28 28 28 28 28
CC(NC1(C(O)OC(C(C1O)O)C([O-])=O))=O
InChI=1S/C8H13NO7/c1-2(10)9-3-4(11)5(12)6(7(13)14)16-8(3)15/h3-6,8,11-12,15H,1H3,(H,9,10)(H,13,14)/p-1/t3-,4-,5-,6+,8-/m1/s1
