22
metacyc CPD-12515  -708.65228064 -708.65228064 -708.65228064 -708.65228064 -708.65228064 -708.65228064 -708.65228064 -708.65228064 -708.65228064 -708.65228064 -708.65228064 -708.65228064 -708.65228064 -708.65228064 -708.65228064
C          0.93463        0.01616        0.04906
O          0.22377       -0.18190       -0.97486
O          0.57805        0.36445        1.21090
C          2.46344       -0.10484       -0.15144
O          2.90921       -1.43167       -0.53783
C          2.49804       -1.82988       -1.84528
O          3.12349       -3.09407       -2.11108
C          2.97120       -0.83636       -2.92923
O          4.42607       -0.93081       -3.02051
C          2.55816        0.60167       -2.59264
O          3.21416        1.51760       -3.49387
C          2.95992        0.94275       -1.14541
O          4.42063        0.96116       -1.10857
H          2.93855        0.07575        0.82078
H          1.42110       -1.99843       -1.87705
H          4.00337       -2.84158       -2.44644
H          2.60468       -1.13266       -3.91684
H          4.75136       -0.48524       -2.20749
H          1.48493        0.73332       -2.75038
H          4.15882        1.45122       -3.25511
H          2.62856        1.95368       -0.88357
H          4.66639        0.79463       -0.17906
22 22 22 22 22 22 22 22 22 22 22 22 22 22 22 22 22 22 22 22 22 22 22 22 22 22 22 22 22 22 22 22 22 22 22 22 22 22 22 22 22 22 22 22 22 22 22 22 22 22 22 22 22 22 22 22 22 22 22 22 22
C([O-])(=O)C1(OC(O)C(O)C(O)C(O)1)
InChI=1S/C6H10O7/c7-1-2(8)4(5(10)11)13-6(12)3(1)9/h1-4,6-9,12H,(H,10,11)/p-1/t1-,2-,3+,4+,6+/m0/s1
