14
metacyc CPD-3564  -209.050321584 -209.050321584 -209.050321584 -209.050321584 -209.050321584 -209.050321584 -209.050321584 -209.050321584 -209.050321584 -209.050321584 -209.050321584 -209.050321584 -209.050321584 -209.050321584 -209.050321584
C          0.94772       -0.10678        0.15016
C          2.46926       -0.07234        0.10220
C          3.00019        0.00332       -1.32416
O          2.53258        1.22523       -1.94918
C          4.56103       -0.00986       -1.32675
O          5.12030       -1.02037       -0.82058
O          5.06795        1.02345       -1.87002
H          0.60477       -0.16973        1.18771
H          0.55972       -0.97698       -0.38873
H          0.51293        0.79472       -0.29232
H          2.86115       -0.96101        0.60990
H          2.81142        0.80159        0.67061
H          2.64096       -0.83553       -1.92987
H          3.38832        1.65912       -2.19494
14 14 14 14 14 14 14 14 14 14 14 14 14 14 14 14 14 14 14 14 14 14 14 14 14 14 14 14 14 14 14 14 14 14 14 14 14
CCC(O)C(=O)[O-]
InChI=1S/C4H8O3/c1-2-3(5)4(6)7/h3,5H,2H2,1H3,(H,6,7)/p-1/t3-/m0/s1
