20
metacyc CPD-1945  -181.38464248 -181.38464248 -181.38464248 -181.38464248 -181.38464248 -181.38464248 -181.38464248 -181.38464248 -181.38464248 -181.38464248 -181.38464248 -181.38464248 -181.38464248 -181.38464248 -181.38464248
C          0.88934        0.15782        0.14398
O          0.24570       -0.60998       -0.62048
O          0.47327        1.03214        0.95292
C          2.41948        0.04822        0.05440
C          2.88171       -1.36111       -0.29733
C          2.71501       -1.72147       -1.76196
O          2.55751       -2.89733       -2.11049
C          3.06872       -0.63701       -2.78372
C          2.55303        0.74079       -2.38852
C          2.90202        1.10220       -0.94371
O          4.48587       -0.57373       -2.97917
H          2.81769        0.29528        1.04789
H          2.34711       -2.10353        0.30612
H          3.95131       -1.45770       -0.07448
H          2.62377       -0.91923       -3.74422
H          1.46635        0.77970       -2.52499
H          2.98389        1.50205       -3.05032
H          2.46789        2.08208       -0.70942
H          3.98857        1.21705       -0.84737
H          4.88846       -0.37222       -2.11808
20 20 20 20 20 20 20 20 20 20 20 20 20 20 20 20 20 20 20 20 20 20 20 20 20 20 20 20 20 20 20 20 20 20 20 20 20 20 20 20 20 20 20 20 20 20 20 20 20 20 20 20 20 20 20
C([O-])(=O)C1(CC(=O)C(CC1)O)
InChI=1S/C7H10O4/c8-5-2-1-4(7(10)11)3-6(5)9/h4-5,8H,1-3H2,(H,10,11)/p-1
