22
metacyc CPD-155  -443.875564304 -443.875564304 -443.875564304 -443.875564304 -443.875564304 -443.875564304 -443.875564304 -443.875564304 -443.875564304 -443.875564304 -443.875564304 -443.875564304 -443.875564304 -443.875564304 -443.875564304
C          1.61956       -0.56178        0.25564
C          0.23926       -1.22738        0.28836
C         -0.83966       -0.14753        0.42418
O         -0.51041        0.81220        1.43114
C         -1.06346        0.55605       -0.92123
O         -2.18264        1.44353       -0.77643
C         -1.31544       -0.46026       -2.03533
O         -2.58680       -1.10894       -1.78639
C         -0.19378       -1.51341       -2.05424
O         -0.08502       -2.12840       -0.76861
O         -0.50800       -2.52902       -3.00028
O          2.37641       -0.58392       -0.70876
H          1.90120       -0.02419        1.17549
H          0.25163       -1.82506        1.20871
H         -1.78090       -0.61654        0.74021
H         -1.06204        1.60013        1.24074
H         -0.19772        1.18281       -1.16290
H         -2.97904        0.91885       -1.00262
H         -1.41845        0.03393       -3.00696
H         -2.40885       -1.88465       -1.21602
H          0.75698       -1.07209       -2.36066
H         -1.47624       -2.55496       -3.08856
22 22 22 22 22 22 22 22 22 22 22 22 22 22 22 22 22 22 22 22 22 22 22 22 22 22 22 22 22 22 22 22 22 22 22 22 22 22 22 22 22 22 22 22 22 22 22 22 22 22 22 22 22 22 22 22 22 22 22 22 22
C(C1(C(O)C(O)C(O)C(O1)O))=O
InChI=1S/C6H10O6/c7-1-2-3(8)4(9)5(10)6(11)12-2/h1-6,8-11H/t2?,3?,4?,5-,6?/m1/s1
