13
metacyc CPD-14104  -422.11836264 -422.11836264 -422.11836264 -422.11836264 -422.11836264 -422.11836264 -422.11836264 -422.11836264 -422.11836264 -422.11836264 -422.11836264 -422.11836264 -422.11836264 -422.11836264 -422.11836264
C          1.04540        0.02229        0.08698
O          0.49616        1.16663        0.08952
O          0.45213       -1.10247        0.08149
C          2.53299       -0.00838        0.09084
O          3.35741        1.09117        0.09695
C          4.64418        0.64231        0.09897
C          5.69392        1.62060        0.10550
H          5.34715        2.66822        0.10793
O          6.90017        1.37570        0.10842
C          4.66448       -0.73608        0.09409
C          3.31307       -1.15347        0.08889
H          5.54848       -1.35687        0.09435
H          2.92068       -2.16189        0.08427
13 13 13 13 13 13 13 13 13 13 13 13 13 13 13 13 13 13 13 13 13 13 13 13 13 13 13 13 13 13 13 13 13 13
C([O-])(=O)C1(OC([CH]=O)=CC=1)
InChI=1S/C6H4O4/c7-3-4-1-2-5(10-4)6(8)9/h1-3H,(H,8,9)/p-1
