20
metacyc CPD-18153  -476.12436772 -476.12436772 -476.12436772 -476.12436772 -476.12436772 -476.12436772 -476.12436772 -476.12436772 -476.12436772 -476.12436772 -476.12436772 -476.12436772 -476.12436772 -476.12436772 -476.12436772
C          3.77381        1.27494       -0.14800
O          3.68269        0.79031        1.18640
O          3.25980        0.07457       -0.73048
C          3.33039        0.50829       -1.98785
O          2.37986        1.06892       -2.54563
C          4.75110        0.76869       -2.16017
C          5.46017        0.19637       -3.28879
O          4.76541        0.08462       -4.30434
C          6.78739        0.04190       -3.09748
C          7.31166        1.41865       -3.31298
O          7.44825        1.97962       -4.39756
C          7.58863        2.06711       -1.99133
O          8.87122        1.84369       -1.49126
C          6.49132        2.36497       -1.20569
C          5.10632        1.52572       -1.09965
H          2.96438        2.02700       -0.29685
H          2.98385        0.08973        1.04116
H          7.06682       -0.22848       -2.07715
H          8.86175        0.93961       -1.13483
H          6.13461        3.29717       -1.73340
20 20 20 20 20 20 20 20 20 20 20 20 20 20 20 20 20 20 20 20 20 20 20 20 20 20 20 20 20 20 20 20 20 20 20 20 20 20 20 20 20 20 20 20 20 20 20 20 20 20 20 20 20 20 20
C1(O)(OC(=O)C2(C([O-])=CC(=O)C(O)=CC1=2))
InChI=1S/C9H6O6/c10-4-1-3-7(6(12)2-5(4)11)9(14)15-8(3)13/h1-2,8,12-13H,(H,10,11)/p-1
