14
metacyc CPD-19752  -163.194434704 -163.194434704 -163.194434704 -163.194434704 -163.194434704 -163.194434704 -163.194434704 -163.194434704 -163.194434704 -163.194434704 -163.194434704 -163.194434704 -163.194434704 -163.194434704 -163.194434704
C         -0.59193       -1.21969        0.01071
C         -1.33127       -0.03718        0.00046
F         -2.66913       -0.10011        0.03227
C         -0.71062        1.20918       -0.04221
C          0.67631        1.25755       -0.07509
O          1.35946        2.44165       -0.11818
C          1.42322        0.07902       -0.06504
C          0.80122       -1.16208       -0.02227
O          2.78676        0.13727       -0.09772
H         -1.10544       -2.17531        0.04424
H         -1.32181        2.10338       -0.04867
H          0.71257        3.16866       -0.12117
H          1.39484       -2.07109       -0.01492
H          2.99346        1.09287       -0.12480
14 14 14 14 14 14 14 14 14 14 14 14 14 14 14 14 14 14 14 14 14 14 14 14 14 14 14 14 14 14 14 14 14 14 14 14 14
C1(C(F)=CC(O)=C(C=1)O)
InChI=1S/C6H5FO2/c7-4-1-2-5(8)6(9)3-4/h1-3,8-9H
