19
metacyc CPD-19  -235.149055032 -235.149055032 -235.149055032 -235.149055032 -235.149055032 -235.149055032 -235.149055032 -235.149055032 -235.149055032 -235.149055032 -235.149055032 -235.149055032 -235.149055032 -235.149055032 -235.149055032
C          4.88449        1.30072       -2.43402
C          3.94104        0.52169       -1.55559
C          3.30828        1.23383       -0.37749
C          2.32449        2.31260       -0.82523
C          1.48803        2.85958        0.33256
C          2.32778        3.52927        1.41956
O          3.39397        4.07659        1.00714
O          1.85460        3.46112        2.58531
O          3.01658        3.38547       -1.47186
O          3.69806       -0.66654       -1.79522
H          5.28653        2.16540       -1.90119
H          4.35707        1.63001       -3.33307
H          5.72762        0.66149       -2.71193
H          4.12394        1.63570        0.23275
H          2.78711        0.47673        0.22120
H          1.64425        1.89264       -1.57504
H          0.89429        2.05315        0.77621
H          0.79439        3.62336       -0.04158
H          3.40980        3.90537       -0.72013
19 19 19 19 19 19 19 19 19 19 19 19 19 19 19 19 19 19 19 19 19 19 19 19 19 19 19 19 19 19 19 19 19 19 19 19 19 19 19 19 19 19 19 19 19 19 19 19 19 19 19 19
CC(CC(CC(=O)[O-])O)=O
InChI=1S/C6H10O4/c1-4(7)2-5(8)3-6(9)10/h5,8H,2-3H2,1H3,(H,9,10)/p-1
