18
metacyc CPD-9400  -251.50381732 -251.50381732 -251.50381732 -251.50381732 -251.50381732 -251.50381732 -251.50381732 -251.50381732 -251.50381732 -251.50381732 -251.50381732 -251.50381732 -251.50381732 -251.50381732 -251.50381732
C          2.67848       -1.22092        0.82775
O          2.78873       -1.06824        2.07732
O          2.69446       -2.29637        0.15958
C          2.41589        0.04558        0.00539
C          2.96945        1.36410        0.54460
C          4.50223        1.46419        0.58466
C          5.19628        1.34090       -0.77605
C          4.90474        2.46668       -1.80556
O          4.63933        3.61614       -1.34245
O          4.97189        2.12137       -3.02716
N          6.65568        1.37887       -0.55174
H          1.32284        0.13922       -0.04906
H          2.75497       -0.10835       -1.02518
H          2.58933        1.52723        1.56130
H          2.57046        2.18608       -0.06176
H          4.88524        0.69118        1.26372
H          4.76171        2.42667        1.04646
H          4.96080        0.37122       -1.22694
18 18 18 18 18 18 18 18 18 18 18 18 18 18 18 18 18 18 18 18 18 18 18 18 18 18 18 18 18 18 18 18 18 18 18 18 18 18 18 18 18 18 18 18 18 18 18 18 18
C([O-])(=O)CCCC(C(=O)[O-])[N+]
InChI=1S/C6H11NO4/c7-4(6(10)11)2-1-3-5(8)9/h4H,1-3,7H2,(H,8,9)(H,10,11)/p-1/t4-/m1/s1
