18
metacyc CPD-13910  -844.94398864 -844.94398864 -844.94398864 -844.94398864 -844.94398864 -844.94398864 -844.94398864 -844.94398864 -844.94398864 -844.94398864 -844.94398864 -844.94398864 -844.94398864 -844.94398864 -844.94398864
C          0.62729        1.22024       -0.30715
O         -0.76487        1.22686        0.02737
C         -1.44098        0.07672       -0.11745
O         -2.64499        0.05671       -0.33907
C         -0.63586       -1.25574        0.00307
O         -1.22212       -2.32485        0.10579
O          0.69910       -1.17227       -0.13256
C          1.35979        0.04373        0.30587
C          1.48592        0.02621        1.83197
O          2.28479       -1.12872        2.21299
C          2.25790        1.31038        2.22063
O          1.55921        2.33536        2.41621
O          3.51252        1.14122        2.27362
H          1.05386        2.18618       -0.01848
H          0.68752        1.17199       -1.40241
H          2.36510       -0.00271       -0.13313
H          0.52357       -0.05468        2.34517
H          3.17968       -0.72997        2.35269
18 18 18 18 18 18 18 18 18 18 18 18 18 18 18 18 18 18 18 18 18 18 18 18 18 18 18 18 18 18 18 18 18 18 18 18 18 18 18 18 18 18 18 18 18 18 18 18 18
C1(OC(=O)C(=O)OC(C(O)C(=O)[O-])1)
InChI=1S/C6H6O7/c7-3(4(8)9)2-1-12-5(10)6(11)13-2/h2-3,7H,1H2,(H,8,9)/p-1
