11
metacyc CPD-9734  -263.0844808 -263.0844808 -263.0844808 -263.0844808 -263.0844808 -263.0844808 -263.0844808 -263.0844808 -263.0844808 -263.0844808 -263.0844808 -263.0844808 -263.0844808 -263.0844808 -263.0844808
C          1.12908        0.02268       -0.08741
C          2.42683        0.05781       -0.09181
C          3.72618        0.10449       -0.10539
C          4.46061        1.24904       -0.70408
O          3.89431        2.21345       -1.21882
C          6.00209        1.22604       -0.68018
O          6.52548        0.19726       -0.13562
O          6.62808        2.20776       -1.19102
H          0.57529        0.37717       -0.94913
H          0.58717       -0.28266        0.79846
H          4.32375       -0.69417        0.31658
11 11 11 11 11 11 11 11 11 11 11 11 11 11 11 11 11 11 11 11 11 11 11 11 11 11 11 11
C=C=CC(=O)C(=O)[O-]
InChI=1S/C5H4O3/c1-2-3-4(6)5(7)8/h3H,1H2,(H,7,8)/p-1
