14
metacyc CPD-18973  -545.4904644 -545.4904644 -545.4904644 -545.4904644 -545.4904644 -545.4904644 -545.4904644 -545.4904644 -545.4904644 -545.4904644 -545.4904644 -545.4904644 -545.4904644 -545.4904644 -545.4904644
C          0.98892        0.10431        0.01105
C          0.31748        1.29395        0.68897
N          0.67258        2.54478       -0.00007
C         -1.23621        1.19838        0.65098
O         -1.73957        0.25021       -0.02627
O         -1.86453        2.07429        1.32429
C          2.49764        0.18441       -0.07541
O          3.09389        0.32334       -1.14974
C          3.35963       -0.00949        1.18314
O          2.72664       -0.16025        2.27942
O          4.62677       -0.04030        1.04759
H          0.62033       -0.00814       -1.01785
H          0.73012       -0.82912        0.52536
H          0.62927        1.36956        1.73610
14 14 14 14 14 14 14 14 14 14 14 14 14 14 14 14 14 14 14 14 14 14 14 14 14 14 14 14 14 14 14 14 14 14 14 14 14
C(C([N+])C([O-])=O)C(=O)C([O-])=O
InChI=1S/C5H7NO5/c6-2(4(8)9)1-3(7)5(10)11/h2H,1,6H2,(H,8,9)(H,10,11)/p-1
