24
metacyc CPD-15622  -397.59112704 -397.59112704 -397.59112704 -397.59112704 -397.59112704 -397.59112704 -397.59112704 -397.59112704 -397.59112704 -397.59112704 -397.59112704 -397.59112704 -397.59112704 -397.59112704 -397.59112704
C          0.98586        0.01232        0.15380
O          0.62996        1.33323        0.53703
C          2.50488       -0.11319       -0.04093
O          2.90235       -1.44743       -0.39340
C          2.53974       -1.86293       -1.70912
O          3.08227       -3.15869       -1.92198
C          3.05787       -0.90599       -2.80289
O          4.49502       -1.02771       -2.89383
C          2.64922        0.53405       -2.46870
O          3.22909        1.44856       -3.40132
C          3.09362        0.89597       -1.04344
O          4.53956        0.82029       -1.00749
H          0.41598       -0.26573       -0.73792
H          0.66463       -0.67253        0.94636
H          0.30530        1.80923       -0.24837
H          2.97314        0.08582        0.93144
H          1.44857       -1.95494       -1.76297
H          3.98846       -2.99338       -2.25027
H          2.67835       -1.20484       -3.78586
H          4.86161       -0.55215       -2.11564
H          1.56272        0.63948       -2.56075
H          4.19727        1.33099       -3.31836
H          2.82694        1.92957       -0.80144
H          4.80689        0.85538       -0.06830
24 24 24 24 24 24 24 24 24 24 24 24 24 24 24 24 24 24 24 24 24 24 24 24 24 24 24 24 24 24 24 24 24 24 24 24 24 24 24 24 24 24 24 24 24 24 24 24 24 24 24 24 24 24 24 24 24 24 24 24 24 24 24 24 24 24 24
C(O)C1(OC(O)C(O)C(O)C(O)1)
InChI=1S/C6H12O6/c7-1-2-3(8)4(9)5(10)6(11)12-2/h2-11H,1H2/t2-,3+,4-,5-,6-/m1/s1
