29
metacyc CPD-7168  -37.213006448 -37.213006448 -37.213006448 -37.213006448 -37.213006448 -37.213006448 -37.213006448 -37.213006448 -37.213006448 -37.213006448 -37.213006448 -37.213006448 -37.213006448 -37.213006448 -37.213006448
C          0.89682        1.21017       -0.32634
N          1.01736        1.31035       -1.79759
C          2.11085        1.36811       -2.52175
N          1.96780        1.47647       -3.76108
N          3.33547        1.31672       -2.06359
C         -0.60281        1.32837        0.03877
O         -1.19625        2.33931       -0.80097
C         -1.41574        0.03398       -0.15504
O         -2.69061        0.25035        0.46425
C         -0.73130       -1.18470        0.46118
O         -0.62445       -1.00752        1.88307
C          0.67843       -1.31823       -0.11650
O          1.31276       -2.48896        0.38882
C          1.52944       -0.08266        0.21993
O          1.75209        0.06695        1.62746
H          1.40966        2.08426        0.08773
H          0.15657        1.51424       -2.31012
H          3.57108        1.29420       -1.08662
H          4.09512        1.34474       -2.73676
H         -0.69836        1.67423        1.07629
H         -2.13759        2.39126       -0.52370
H         -1.59767       -0.13291       -1.22436
H         -3.15889       -0.60104        0.55251
H         -1.31373       -2.09747        0.29618
H         -1.52474       -0.81791        2.22151
H          0.62323       -1.43534       -1.20528
H          1.24213       -2.47348        1.36368
H          2.52575       -0.23966       -0.19797
H          1.00042       -0.34243        2.11406
29 29 29 29 29 29 29 29 29 29 29 29 29 29 29 29 29 29 29 29 29 29 29 29 29 29 29 29 29 29 29 29 29 29 29 29 29 29 29 29 29 29 29 29 29 29 29 29 29 29 29 29 29 29 29 29 29 29 29 29 29 29 29 29 29 29 29 29 29 29 29 29 29 29 29 29 29 29 29 29 29 29
C1(NC(=[N+])N)(C(O)C(O)C(O)C(O)C(O)1)
InChI=1S/C7H15N3O5/c8-7(9)10-1-2(11)4(13)6(15)5(14)3(1)12/h1-6,11-15H,(H4,8,9,10)/p+1/t1-,2-,3+,4+,5-,6-
