17
metacyc CPD-20331  -149.214385296 -149.214385296 -149.214385296 -149.214385296 -149.214385296 -149.214385296 -149.214385296 -149.214385296 -149.214385296 -149.214385296 -149.214385296 -149.214385296 -149.214385296 -149.214385296 -149.214385296
C          0.94260        0.02904       -0.00569
C          2.45744       -0.06902       -0.13032
N          2.85343       -0.49769       -1.48657
C          2.62077       -1.72748       -2.02860
O          1.98538       -2.62897       -1.48678
C          3.17022       -1.88974       -3.42058
C          3.14364        1.29343        0.24463
O          2.63519        1.95239        1.19281
O          4.15175        1.56867       -0.48344
H          0.46345       -0.93384       -0.21034
H          0.53800        0.75618       -0.71774
H          0.63936        0.33595        1.00025
H          2.83199       -0.82802        0.56860
H          3.59610        0.10091       -1.84849
H          3.83677       -1.06576       -3.69506
H          2.33632       -1.91372       -4.12871
H          3.73221       -2.82429       -3.47955
17 17 17 17 17 17 17 17 17 17 17 17 17 17 17 17 17 17 17 17 17 17 17 17 17 17 17 17 17 17 17 17 17 17 17 17 17 17 17 17 17 17 17 17 17 17
CC(NC(=O)C)C(=O)[O-]
InChI=1S/C5H9NO3/c1-3(5(8)9)6-4(2)7/h3H,1-2H3,(H,6,7)(H,8,9)/p-1/t3-/m0/s1
