15
metacyc CPD-6962  -393.07663288 -393.07663288 -393.07663288 -393.07663288 -393.07663288 -393.07663288 -393.07663288 -393.07663288 -393.07663288 -393.07663288 -393.07663288 -393.07663288 -393.07663288 -393.07663288 -393.07663288
C         -1.14149        0.72792       -0.03658
C         -1.14253       -0.66186        0.00812
C          0.08234       -1.30069        0.00043
O          0.15914       -2.66468        0.04314
N          1.26442       -0.67095       -0.05387
C          1.22048        0.68315       -0.09936
O          2.46710        1.19582       -0.20445
C          0.06673        1.44502       -0.08520
C          0.03169        2.94775       -0.12278
O          1.02770        3.60050        0.31443
O         -1.05043        3.46815       -0.55358
H         -2.08179        1.27737       -0.03437
H         -2.07992       -1.19952        0.04493
H         -0.74864       -2.99619        0.07944
H          2.97990        0.37512       -0.14726
15 15 15 15 15 15 15 15 15 15 15 15 15 15 15 15 15 15 15 15 15 15 15 15 15 15 15 15 15 15 15 15 15 15 15 15 15 15 15 15
C1(C=C(O)N=C(O)C=1C(=O)[O-])
InChI=1S/C6H5NO4/c8-4-2-1-3(6(10)11)5(9)7-4/h1-2H,(H,10,11)(H2,7,8,9)/p-1
