16
metacyc CPD-312  -315.235505296 -315.235505296 -315.235505296 -315.235505296 -315.235505296 -315.235505296 -315.235505296 -315.235505296 -315.235505296 -315.235505296 -315.235505296 -315.235505296 -315.235505296 -315.235505296 -315.235505296
C          0.91990       -0.12218       -0.12136
C          2.44255       -0.18053        0.06983
N          2.79434       -0.37025        1.52922
C          2.36513        0.78898        2.38396
C          2.72002        0.84417        3.90545
O          2.17719       -0.01078        4.67648
O          3.40512        1.85918        4.27765
C          2.98742       -1.26517       -0.95200
O          2.24277       -2.26800       -1.21373
O          4.07309       -0.96809       -1.55830
H          0.49477        0.79144        0.30954
H          0.42401       -0.97517        0.35738
H          0.64745       -0.12176       -1.18266
H          2.85468        0.77531       -0.28474
H          1.27092        0.87271        2.37578
H          2.73795        1.72514        1.94458
16 16 16 16 16 16 16 16 16 16 16 16 16 16 16 16 16 16 16 16 16 16 16 16 16 16 16 16 16 16 16 16 16 16 16 16 16 16 16 16 16 16 16
CC([N+]CC(=O)[O-])C(=O)[O-]
InChI=1S/C5H9NO4/c1-3(5(9)10)6-2-4(7)8/h3,6H,2H2,1H3,(H,7,8)(H,9,10)/p-1/t3-/m1/s1
