14
metacyc CPD-19014  -222.56461648 -222.56461648 -222.56461648 -222.56461648 -222.56461648 -222.56461648 -222.56461648 -222.56461648 -222.56461648 -222.56461648 -222.56461648 -222.56461648 -222.56461648 -222.56461648 -222.56461648
C          1.05103        0.05164        0.01167
C          2.57606        0.02946        0.01953
O          3.00008       -0.27471       -1.33526
C          3.12743        1.40271        0.40809
C          3.16708       -1.01871        1.04247
O          2.31844       -1.74145        1.64610
O          4.42614       -0.99419        1.19273
H          0.67353        0.79368       -0.70194
H          0.64050        0.28341        0.99985
H          0.64879       -0.91625       -0.31046
H          2.88603        0.53446       -1.85373
H          2.73123        2.18509       -0.24932
H          4.21764        1.44140        0.30241
H          2.87268        1.66053        1.44176
14 14 14 14 14 14 14 14 14 14 14 14 14 14 14 14 14 14 14 14 14 14 14 14 14 14 14 14 14 14 14 14 14 14 14 14 14
CC(O)(C)C(=O)[O-]
InChI=1S/C4H8O3/c1-4(2,7)3(5)6/h7H,1-2H3,(H,5,6)/p-1
