12
metacyc CPD-18317  -253.080047272 -253.080047272 -253.080047272 -253.080047272 -253.080047272 -253.080047272 -253.080047272 -253.080047272 -253.080047272 -253.080047272 -253.080047272 -253.080047272 -253.080047272 -253.080047272 -253.080047272
C          0.92177        0.13047       -0.02564
C          0.21059        1.42219       -0.09583
O          0.74189        2.52190       -0.15558
N         -1.14511        1.28971       -0.08863
C          2.26012        0.06318       -0.02198
C          2.96985       -1.28187        0.05111
O          2.22616       -2.30160        0.10652
O          4.22973       -1.20126        0.04673
H          0.33279       -0.77860        0.02376
H         -1.60243        0.39204       -0.03985
H         -1.69387        2.13444       -0.13453
H          2.87328        0.95694       -0.07055
12 12 12 12 12 12 12 12 12 12 12 12 12 12 12 12 12 12 12 12 12 12 12 12 12 12 12 12 12 12 12
C(C(=O)N)=CC([O-])=O
InChI=1S/C4H5NO3/c5-3(6)1-2-4(7)8/h1-2H,(H2,5,6)(H,7,8)/p-1/b2-1+
