14
metacyc CPD-8150  -134.52463744 -134.52463744 -134.52463744 -134.52463744 -134.52463744 -134.52463744 -134.52463744 -134.52463744 -134.52463744 -134.52463744 -134.52463744 -134.52463744 -134.52463744 -134.52463744 -134.52463744
C          1.03061        0.00271       -0.00383
C          2.55208       -0.03640       -0.05540
C          3.10811       -0.69101       -1.31218
O          2.71252       -2.06111       -1.38806
N          3.08185        1.36934        0.00037
O          2.75227        2.15043       -0.90235
O          3.82981        1.64320        0.94707
H          0.61871       -1.01185        0.02884
H          0.60513        0.50713       -0.87871
H          0.68178        0.53296        0.88870
H          2.92262       -0.55947        0.83452
H          4.20307       -0.65151       -1.33662
H          2.74301       -0.19632       -2.21921
H          3.23375       -2.56650       -0.73990
14 14 14 14 14 14 14 14 14 14 14 14 14 14 14 14 14 14 14 14 14 14 14 14 14 14 14 14 14 14 14 14 14 14 14 14 14
CC(CO)[N+]([O-])=O
InChI=1S/C3H7NO3/c1-3(2-5)4(6)7/h3,5H,2H2,1H3
