12
metacyc CPD-7400  -135.9327208 -135.9327208 -135.9327208 -135.9327208 -135.9327208 -135.9327208 -135.9327208 -135.9327208 -135.9327208 -135.9327208 -135.9327208 -135.9327208 -135.9327208 -135.9327208 -135.9327208
C         -0.60620        1.17707       -0.14392
N          0.68206        1.24079       -0.08883
C          1.35558        0.05794       -0.00592
O          2.58424        0.00831        0.05932
N          0.62352       -1.08443        0.01311
C         -0.72960       -1.09496       -0.00228
O         -1.22617       -2.22764        0.06522
N         -1.33873        0.03829       -0.07861
N         -1.31877        2.33356       -0.21905
H          1.07739       -1.97554        0.07811
H         -0.81271        3.09590        0.20442
H         -2.24519        2.17371        0.15395
12 12 12 12 12 12 12 12 12 12 12 12 12 12 12 12 12 12 12 12 12 12 12 12 12 12 12 12 12 12 12
C1(=NC(=O)NC([O-])=N1)(N)
InChI=1S/C3H4N4O2/c4-1-5-2(8)7-3(9)6-1/h(H4,4,5,6,7,8,9)/p-1
