16
metacyc CPD-10651  -384.49478864 -384.49478864 -384.49478864 -384.49478864 -384.49478864 -384.49478864 -384.49478864 -384.49478864 -384.49478864 -384.49478864 -384.49478864 -384.49478864 -384.49478864 -384.49478864 -384.49478864
C          1.02733        0.11568        0.07876
C          2.49966        0.03345        0.10329
C          3.31446       -1.01578        0.09928
C          4.66250       -0.55618        0.14219
C          5.73143       -1.35534        0.17937
C          7.19021       -0.92724        0.23858
O          7.46944        0.23251       -0.15818
O          7.95835       -1.84476        0.65445
O          4.69018        0.82974        0.16526
C          3.37727        1.21144        0.14239
O          2.96117        2.36118        0.15798
H          0.57403       -0.87871        0.01168
H          0.68647        0.69866       -0.78246
H          0.65444        0.59426        0.98976
H          3.02456       -2.05404        0.07540
H          5.60165       -2.43459        0.19304
16 16 16 16 16 16 16 16 16 16 16 16 16 16 16 16 16 16 16 16 16 16 16 16 16 16 16 16 16 16 16 16 16 16 16 16 16 16 16 16 16 16 16
CC1(=CC(=CC(=O)[O-])OC(=O)1)
InChI=1S/C7H6O4/c1-4-2-5(3-6(8)9)11-7(4)10/h2-3H,1H3,(H,8,9)/p-1/b5-3+
