22
metacyc CPD-382  -446.3859392 -446.3859392 -446.3859392 -446.3859392 -446.3859392 -446.3859392 -446.3859392 -446.3859392 -446.3859392 -446.3859392 -446.3859392 -446.3859392 -446.3859392 -446.3859392 -446.3859392
C          1.12522       -0.23842        0.70550
O          0.23895       -1.00521       -0.09105
C          2.48439       -0.00885        0.05334
O          2.90140       -0.73594       -0.85176
C          3.28201        1.19611        0.56557
O          3.04791        1.49182        1.94869
C          4.79267        1.03868        0.32855
O          5.44772        2.26114        0.69136
C          5.37902       -0.06720        1.20188
O          4.68692       -0.69439        2.01337
C          6.88060       -0.29978        1.09659
O          7.28501       -1.45068        1.82363
H          1.28380       -0.76717        1.65382
H          0.64814        0.72248        0.90645
H          0.74323       -1.77464       -0.41567
H          2.92154        2.06710        0.00964
H          3.34298        0.70952        2.46673
H          5.01638        0.81955       -0.72046
H          5.01885        2.57658        1.51353
H          7.40153        0.56853        1.51054
H          7.16218       -0.43609        0.04983
H          6.65441       -1.55246        2.56321
22 22 22 22 22 22 22 22 22 22 22 22 22 22 22 22 22 22 22 22 22 22 22 22 22 22 22 22 22 22 22 22 22 22 22 22 22 22 22 22 22 22 22 22 22 22 22 22 22 22 22 22 22 22 22 22 22 22 22 22 22
C(O)C(=O)C(O)C(O)C(=O)CO
InChI=1S/C6H10O6/c7-1-3(9)5(11)6(12)4(10)2-8/h5-8,11-12H,1-2H2/t5-,6-/m1/s1
