16
metacyc CPD-9165  -74.869433216 -74.869433216 -74.869433216 -74.869433216 -74.869433216 -74.869433216 -74.869433216 -74.869433216 -74.869433216 -74.869433216 -74.869433216 -74.869433216 -74.869433216 -74.869433216 -74.869433216
C          1.65873       -1.21865       -0.53435
C          2.51640       -0.09057        0.01866
C          3.00776       -0.40835        1.39751
C          4.30452       -0.49104        1.73276
C          4.71229       -0.81746        3.13202
C          6.21607       -0.90496        3.47543
O          7.01433       -0.67703        2.50595
O          6.54451       -1.19135        4.67014
O          3.89220       -1.02309        4.02792
H          1.30118       -0.96603       -1.53768
H          0.78375       -1.39872        0.09975
H          2.22794       -2.15196       -0.60211
H          1.92290        0.83000        0.05905
H          3.35254        0.09638       -0.66514
H          2.25325       -0.57410        2.16489
H          5.11001       -0.33254        1.02401
16 16 16 16 16 16 16 16 16 16 16 16 16 16 16 16 16 16 16 16 16 16 16 16 16 16 16 16 16 16 16 16 16 16 16 16 16 16 16 16 16 16 16
CCC=CC(C(=O)[O-])=O
InChI=1S/C6H8O3/c1-2-3-4-5(7)6(8)9/h3-4H,2H2,1H3,(H,8,9)/p-1/b4-3+
