21
metacyc CPD-19408  -747.85451968 -747.85451968 -747.85451968 -747.85451968 -747.85451968 -747.85451968 -747.85451968 -747.85451968 -747.85451968 -747.85451968 -747.85451968 -747.85451968 -747.85451968 -747.85451968 -747.85451968
C          1.23507       -0.14544        0.00164
O          2.66209       -0.16844        0.03240
C          3.20621       -1.10526       -0.79195
O          2.58905       -1.87617       -1.49890
C          4.67578       -0.97625       -0.70076
C          5.48590       -1.77960       -1.40359
C          6.95187       -1.66783       -1.39401
C          7.59605       -3.02183       -0.87222
O          8.49521       -2.91178        0.01052
O          6.97941       -4.07871       -1.23824
C          7.62531       -0.56201       -1.79190
O          6.93073        0.57807       -2.24618
C          9.21314       -0.43238       -1.88653
O          9.81432       -1.36456       -2.50038
O          9.66893        0.70651       -1.53450
H          0.89632        0.65534        0.66462
H          0.82719       -1.09295        0.36636
H          0.87153        0.07053       -1.00888
H          5.08243       -0.19307       -0.07216
H          5.09690       -2.60304       -2.00299
H          6.02159        0.29131       -2.39426
21 21 21 21 21 21 21 21 21 21 21 21 21 21 21 21 21 21 21 21 21 21 21 21 21 21 21 21 21 21 21 21 21 21 21 21 21 21 21 21 21 21 21 21 21 21 21 21 21 21 21 21 21 21 21 21 21 21
COC(=O)C=CC(C([O-])=O)=C(O)C([O-])=O
InChI=1S/C8H8O7/c1-15-5(9)3-2-4(7(11)12)6(10)8(13)14/h2-3,10H,1H3,(H,11,12)(H,13,14)/p-2/b3-2+,6-4+
