15
metacyc CPD-17569  -265.632064008 -265.632064008 -265.632064008 -265.632064008 -265.632064008 -265.632064008 -265.632064008 -265.632064008 -265.632064008 -265.632064008 -265.632064008 -265.632064008 -265.632064008 -265.632064008 -265.632064008
C         -0.64803       -1.21275       -0.01546
C         -1.38100       -0.03646       -0.05390
O         -2.74399       -0.04851       -0.08590
C         -0.73250        1.18421       -0.06822
C          0.67569        1.20651       -0.05297
C          1.49175        0.04502       -0.03364
C          0.75439       -1.15777       -0.00412
O          2.76743        0.03111       -0.05418
N          1.27666        2.53731       -0.07821
O          1.13478        3.19783       -1.12525
O          1.71757        3.00062        0.98873
H         -1.12873       -2.18467        0.00173
H         -3.02384       -0.97701       -0.12840
H         -1.30242        2.10639       -0.09824
H          1.30952       -2.09645        0.02078
15 15 15 15 15 15 15 15 15 15 15 15 15 15 15 15 15 15 15 15 15 15 15 15 15 15 15 15 15 15 15 15 15 15 15 15 15 15 15 15
C1(C(O)=CC(=C(C=1)[O-])[N+](=O)[O-])
InChI=1S/C6H5NO4/c8-4-1-2-6(9)5(3-4)7(10)11/h1-3,8-9H/p-1
