10
metacyc CPD-12077  -68.09206868 -68.09206868 -68.09206868 -68.09206868 -68.09206868 -68.09206868 -68.09206868 -68.09206868 -68.09206868 -68.09206868 -68.09206868 -68.09206868 -68.09206868 -68.09206868 -68.09206868
C          1.06973        0.02288       -0.06367
C          2.58384        0.01212       -0.05633
N          3.04742       -1.22202        0.65337
O          3.22825       -2.23350       -0.03580
O          3.20851       -1.14072        1.87742
H          0.70070        0.91775       -0.57432
H          0.66545        0.02252        0.95445
H          0.66708       -0.85391       -0.58241
H          2.99616        0.87313        0.47819
H          2.99706       -0.01547       -1.06907
10 10 10 10 10 10 10 10 10 10 10 10 10 10 10 10 10 10 10 10 10 10 10 10 10
CC[N+]([O-])=O
InChI=1S/C2H5NO2/c1-2-3(4)5/h2H2,1H3
