21
metacyc CPD-12924  -296.43142104 -296.43142104 -296.43142104 -296.43142104 -296.43142104 -296.43142104 -296.43142104 -296.43142104 -296.43142104 -296.43142104 -296.43142104 -296.43142104 -296.43142104 -296.43142104 -296.43142104
C         -1.56747        0.80232        0.09571
O         -2.75753        1.28488       -0.54114
C         -1.41217       -0.70780       -0.18623
C         -0.04702       -1.24184        0.14339
C          1.13232       -0.32924        0.37266
C          0.90916        1.14882        0.42789
O          0.73363        1.53815        1.80242
C         -0.32903        1.58719       -0.38848
O         -0.52296        3.00145       -0.25836
O          0.92616       -0.96405       -0.89081
O         -1.68916       -0.94458       -1.57652
H         -1.70445        0.97083        1.16980
H         -2.78614        0.84800       -1.41615
H         -2.17710       -1.25334        0.37639
H         -0.05342       -2.24175        0.55461
H          1.97828       -0.66245        0.95794
H          1.79419        1.68364        0.06795
H          0.47151        0.76538        2.32698
H         -0.16696        1.40239       -1.45695
H         -0.80722        3.16573        0.65858
H         -0.82729       -0.99746       -2.03402
21 21 21 21 21 21 21 21 21 21 21 21 21 21 21 21 21 21 21 21 21 21 21 21 21 21 21 21 21 21 21 21 21 21 21 21 21 21 21 21 21 21 21 21 21 21 21 21 21 21 21 21 21 21 21 21 21 21
C1(O)(C(C2(C(C(O)C(O)1)O2))O)
InChI=1S/C6H10O5/c7-1-2(8)4(10)6-5(11-6)3(1)9/h1-10H/t1-,2-,3+,4+,5?,6?/m0/s1
