17
metacyc CPD-10775  -234.266523912 -234.266523912 -234.266523912 -234.266523912 -234.266523912 -234.266523912 -234.266523912 -234.266523912 -234.266523912 -234.266523912 -234.266523912 -234.266523912 -234.266523912 -234.266523912 -234.266523912
C          1.08305       -0.04193        0.11569
C          2.59788       -0.04366        0.04383
O          3.06610        0.17039       -1.27680
O          3.13864        0.96935        0.90158
C          4.46646        0.53906        1.23757
C          4.39273       -0.96101        1.49005
O          5.61117       -1.61330        1.20792
C          3.21702       -1.31532        0.60858
O          2.85838       -2.46094        0.35468
H          0.67954        0.90850       -0.25123
H          0.73041       -0.17086        1.14428
H          0.65660       -0.83789       -0.50418
H          2.40898        0.72953       -1.72202
H          4.80352        1.08028        2.12724
H          5.15011        0.79053        0.41793
H          4.10592       -1.15848        2.52770
H          5.67486       -1.72009        0.24023
17 17 17 17 17 17 17 17 17 17 17 17 17 17 17 17 17 17 17 17 17 17 17 17 17 17 17 17 17 17 17 17 17 17 17 17 17 17 17 17 17 17 17 17 17 17
CC1(O)(OCC(O)C(=O)1)
InChI=1S/C5H8O4/c1-5(8)4(7)3(6)2-9-5/h3,6,8H,2H2,1H3/t3-,5-/m0/s1
