21
metacyc CPD-12249  -132.492891224 -132.492891224 -132.492891224 -132.492891224 -132.492891224 -132.492891224 -132.492891224 -132.492891224 -132.492891224 -132.492891224 -132.492891224 -132.492891224 -132.492891224 -132.492891224 -132.492891224
C          1.11415       -0.24631       -0.01570
C          2.61376        0.00701       -0.10589
N          3.33177       -1.21366        0.25810
C          3.02743        0.40531       -1.52093
O          2.25936        0.36165       -2.48153
N          4.29843        0.89773       -1.62891
C          4.94208        1.36678       -2.88143
C          4.36238        2.70085       -3.36839
O          2.99854        2.59011       -3.80628
C          6.46962        1.60971       -2.67320
O          6.86897        1.35724       -1.49152
O          7.12509        2.00218       -3.67604
H          0.82039       -0.55050        0.99463
H          0.79040       -1.02697       -0.71428
H          0.55759        0.66417       -0.26587
H          2.88849        0.81460        0.58157
H          4.98607        0.76369       -0.88450
H          4.78982        0.58355       -3.63261
H          4.92136        3.10260       -4.21737
H          4.38717        3.44808       -2.56737
H          2.65649        1.73975       -3.45742
21 21 21 21 21 21 21 21 21 21 21 21 21 21 21 21 21 21 21 21 21 21 21 21 21 21 21 21 21 21 21 21 21 21 21 21 21 21 21 21 21 21 21 21 21 21 21 21 21 21 21 21 21 21 21 21 21 21
CC([N+])C(=O)NC(CO)C([O-])=O
InChI=1S/C6H12N2O4/c1-3(7)5(10)8-4(2-9)6(11)12/h3-4,9H,2,7H2,1H3,(H,8,10)(H,11,12)/t3-,4-/m1/s1
