18
metacyc CPD-356  -406.64731136 -406.64731136 -406.64731136 -406.64731136 -406.64731136 -406.64731136 -406.64731136 -406.64731136 -406.64731136 -406.64731136 -406.64731136 -406.64731136 -406.64731136 -406.64731136 -406.64731136
C          0.92114        0.09584        0.11363
O          0.47805        0.03917        1.46800
C          2.44087       -0.01007        0.03807
O          3.04001        1.05604        0.77799
C          4.22860        0.62083        1.26809
O          5.14059        1.34822        1.61111
C          4.27760       -0.90059        1.29260
O          5.36955       -1.47933        0.59138
C          2.97128       -1.30529        0.62913
O          3.17513       -2.26439       -0.41373
H          0.57655        1.04419       -0.30925
H          0.44842       -0.72430       -0.43820
H          0.78840        0.85691        1.89773
H          2.74235        0.09941       -1.01139
H          4.29323       -1.22202        2.34207
H          6.05527       -0.78872        0.50300
H          2.28987       -1.74305        1.36620
H          4.14144       -2.44421       -0.42238
18 18 18 18 18 18 18 18 18 18 18 18 18 18 18 18 18 18 18 18 18 18 18 18 18 18 18 18 18 18 18 18 18 18 18 18 18 18 18 18 18 18 18 18 18 18 18 18 18
C(O)C1(OC(=O)C(O)C(O)1)
InChI=1S/C5H8O5/c6-1-2-3(7)4(8)5(9)10-2/h2-4,6-8H,1H2/t2-,3-,4+/m1/s1
