7
metacyc CPD-18305  -83.41490176 -83.41490176 -83.41490176 -83.41490176 -83.41490176 -83.41490176 -83.41490176 -83.41490176 -83.41490176 -83.41490176 -83.41490176 -83.41490176 -83.41490176 -83.41490176 -83.41490176
C          0.99822        0.01661       -0.03960
N          2.46006       -0.00193       -0.01510
C          2.95377        0.64009       -0.86364
O          3.43693        1.28644       -1.71791
H          0.61941       -0.60320        0.77959
H          0.60431       -0.39543       -0.97639
H          0.60430        1.03014        0.10221
7 7 7 7 7 7 7 7 7 7 7 7 7 7 7 7
CN=C=O
InChI=1S/C2H3NO/c1-3-2-4/h1H3
