22
metacyc CPD-9062  -473.07990104 -473.07990104 -473.07990104 -473.07990104 -473.07990104 -473.07990104 -473.07990104 -473.07990104 -473.07990104 -473.07990104 -473.07990104 -473.07990104 -473.07990104 -473.07990104 -473.07990104
C          1.04026        0.19523       -0.50694
O          0.87292        1.43368       -1.18540
C          2.47969        0.02628        0.00569
O          3.35283        0.03907       -1.13987
C          2.98485        1.07585        1.00730
H          4.02824        0.81464        1.23522
O          3.04146        2.38622        0.44582
C          2.86623        3.30141        1.44407
O          3.24034        4.46109        1.37423
C          2.17746        2.65293        2.64027
O          2.68865        2.92630        3.92922
C          2.17706        1.17100        2.29096
O          2.73315        0.30676        3.28280
H          0.79719       -0.61139       -1.20890
H          0.31200        0.15337        0.30647
H          0.85690        1.23450       -2.14023
H          2.56560       -0.96522        0.46123
H          3.33660        0.96054       -1.47011
H          1.14402        3.02082        2.61445
H          3.65437        2.83201        3.91671
H          1.14235        0.84559        2.14899
H          3.61331        0.63077        3.53834
22 22 22 22 22 22 22 22 22 22 22 22 22 22 22 22 22 22 22 22 22 22 22 22 22 22 22 22 22 22 22 22 22 22 22 22 22 22 22 22 22 22 22 22 22 22 22 22 22 22 22 22 22 22 22 22 22 22 22 22 22
C(O)C(O)[CH]1(OC(=O)C(O)C(O)1)
InChI=1S/C6H10O6/c7-1-2(8)5-3(9)4(10)6(11)12-5/h2-5,7-10H,1H2/t2-,3-,4+,5-/m1/s1
