23
metacyc CPD-6404  -109.407026888 -109.407026888 -109.407026888 -109.407026888 -109.407026888 -109.407026888 -109.407026888 -109.407026888 -109.407026888 -109.407026888 -109.407026888 -109.407026888 -109.407026888 -109.407026888 -109.407026888
C          1.25274       -0.48198       -0.49439
O          2.49669        0.04974       -0.04423
C          3.04742       -0.60129        1.02608
C          3.80610        0.19006        1.89321
C          4.38911       -0.36366        3.03631
C          4.23945       -1.72594        3.28806
C          3.52527       -2.53030        2.39326
C          2.92124       -1.96753        1.26861
O          3.30667       -3.86919        2.59274
C          4.26195       -4.46478        3.45895
C          4.63644       -3.62398        4.71322
N          4.74173       -2.27616        4.47060
O          4.84990       -4.10199        5.82534
O          3.82437       -5.77473        3.79661
H          0.85638        0.19210       -1.25880
H          0.52636       -0.52683        0.32537
H          1.37910       -1.46470       -0.95932
H          3.91938        1.25271        1.68968
H          4.94510        0.27652        3.71507
H          2.37138       -2.62016        0.60118
H          5.19225       -4.59739        2.89094
H          5.07755       -1.68867        5.22039
H          3.31286       -5.67525        4.61823
23 23 23 23 23 23 23 23 23 23 23 23 23 23 23 23 23 23 23 23 23 23 23 23 23 23 23 23 23 23 23 23 23 23 23 23 23 23 23 23 23 23 23 23 23 23 23 23 23 23 23 23 23 23 23 23 23 23 23 23 23 23 23 23
COC1(C=CC2(=C(C=1)OC(C(N2)=O)O))
InChI=1S/C9H9NO4/c1-13-5-2-3-6-7(4-5)14-9(12)8(11)10-6/h2-4,9,12H,1H3,(H,10,11)
