27
metacyc CPD-10803  -22.620277184 -22.620277184 -22.620277184 -22.620277184 -22.620277184 -22.620277184 -22.620277184 -22.620277184 -22.620277184 -22.620277184 -22.620277184 -22.620277184 -22.620277184 -22.620277184 -22.620277184
C          1.06076        1.26755        1.34010
C          2.55671        1.04479        1.25493
C          2.92908       -0.38391        1.63569
C          4.41698       -0.60222        1.48272
O          4.88841       -1.11036        0.46977
N          5.15119       -0.14210        2.53871
C          6.62056       -0.21648        2.64060
C          7.28029        0.76507        1.66401
C          8.80664        0.77882        1.67944
O          9.34250       -0.52550        1.50035
C          7.10834        0.11964        4.08303
O          6.29206        0.80671        4.77335
O          8.23574       -0.36092        4.39241
H          0.80886        2.29280        1.04932
H          0.69557        1.10628        2.36220
H          0.52045        0.58509        0.67410
H          3.06982        1.75748        1.91098
H          2.89730        1.25831        0.23445
H          2.41307       -1.10689        0.99312
H          2.63404       -0.60411        2.66825
H          4.72172        0.24187        3.37907
H          6.90281       -1.24884        2.40069
H          6.91607        1.78331        1.85110
H          6.96003        0.50535        0.64748
H          9.20941        1.20347        2.60392
H          9.17066        1.40612        0.85919
H          9.20753       -0.96501        2.36739
27 27 27 27 27 27 27 27 27 27 27 27 27 27 27 27 27 27 27 27 27 27 27 27 27 27 27 27 27 27 27 27 27 27 27 27 27 27 27 27 27 27 27 27 27 27 27 27 27 27 27 27 27 27 27 27 27 27 27 27 27 27 27 27 27 27 27 27 27 27 27 27 27 27 27 27
CCCC(=O)NC(CCO)C(=O)[O-]
InChI=1S/C8H15NO4/c1-2-3-7(11)9-6(4-5-10)8(12)13/h6,10H,2-5H2,1H3,(H,9,11)(H,12,13)/p-1/t6-/m0/s1
