20
metacyc CPD-8098  -165.871424848 -165.871424848 -165.871424848 -165.871424848 -165.871424848 -165.871424848 -165.871424848 -165.871424848 -165.871424848 -165.871424848 -165.871424848 -165.871424848 -165.871424848 -165.871424848 -165.871424848
C          0.90057        0.16179       -0.04513
O          0.38656        0.60945       -1.10656
O          0.34583       -0.29750        0.99407
C          2.42809        0.17696        0.03493
C          3.19838        0.64560       -0.95950
C          4.66565        0.72367       -0.92628
C          5.37150        0.91790        0.27044
C          6.75593        1.05232        0.24191
O          7.48221        1.24809        1.38680
C          7.44627        1.00345       -0.96558
O          8.80411        1.15316       -0.97708
C          6.76898        0.81515       -2.15933
C          5.37704        0.68045       -2.13772
H          2.84412       -0.21899        0.95462
H          2.71558        1.00568       -1.86757
H          4.82907        0.98129        1.20845
H          6.84918        1.24776        2.12699
H          9.03086        1.28627       -0.03514
H          7.31077        0.78086       -3.09825
H          4.84295        0.54078       -3.07533
20 20 20 20 20 20 20 20 20 20 20 20 20 20 20 20 20 20 20 20 20 20 20 20 20 20 20 20 20 20 20 20 20 20 20 20 20 20 20 20 20 20 20 20 20 20 20 20 20 20 20 20 20 20 20
C([O-])(=O)C=CC1(=CC(O)=C(O)C=C1)
InChI=1S/C9H8O4/c10-7-3-1-6(5-8(7)11)2-4-9(12)13/h1-5,10-11H,(H,12,13)/p-1/b4-2-
