22
metacyc CPD-15633  -698.94540064 -698.94540064 -698.94540064 -698.94540064 -698.94540064 -698.94540064 -698.94540064 -698.94540064 -698.94540064 -698.94540064 -698.94540064 -698.94540064 -698.94540064 -698.94540064 -698.94540064
C          0.88363       -0.12730       -0.14792
H          0.46198       -0.31754        0.85460
O          0.12740        0.00631       -1.11150
C          2.41579       -0.12175       -0.21099
O          2.87785        0.10321       -1.53796
C          2.92022        0.90752        0.83458
O          2.43262        0.46653        2.11003
C          4.46339        1.10173        0.77700
O          4.83269        1.53249       -0.55940
C          5.02495        2.13174        1.76384
O          4.47197        3.44249        1.46530
C          4.79154        1.78387        3.24964
O          4.61286        0.56061        3.50311
O          4.72455        2.80015        4.00407
H          2.73511       -1.12847        0.08367
H          3.55889        0.80776       -1.49111
H          2.44457        1.87377        0.61665
H          3.19682        0.26881        2.71066
H          4.95027        0.13454        0.94611
H          5.09995        2.47082       -0.45831
H          6.10684        2.23162        1.61595
H          4.32378        3.81160        2.37299
22 22 22 22 22 22 22 22 22 22 22 22 22 22 22 22 22 22 22 22 22 22 22 22 22 22 22 22 22 22 22 22 22 22 22 22 22 22 22 22 22 22 22 22 22 22 22 22 22 22 22 22 22 22 22 22 22 22 22 22 22
[CH](=O)C(O)C(O)C(O)C(O)C(=O)[O-]
InChI=1S/C6H10O7/c7-1-2(8)3(9)4(10)5(11)6(12)13/h1-5,8-11H,(H,12,13)/p-1/t2-,3+,4+,5-/m0/s1
