18
metacyc CPD-290  -203.611109032 -203.611109032 -203.611109032 -203.611109032 -203.611109032 -203.611109032 -203.611109032 -203.611109032 -203.611109032 -203.611109032 -203.611109032 -203.611109032 -203.611109032 -203.611109032 -203.611109032
C          1.04223       -0.04240        0.18792
O          0.65475       -0.24760        1.38721
O          0.35844        0.12049       -0.85860
C          2.60806       -0.00453        0.06535
O          3.17734       -0.08016        1.41775
C          3.08989       -1.24296       -0.65040
C          3.82112       -1.19790       -1.77265
C          4.20404        0.05542       -2.37182
C          3.84587        1.23007       -1.83473
C          3.02082        1.34880       -0.57877
O          3.85518        2.09776        0.33419
H          2.35433       -0.21547        1.95570
H          2.79730       -2.19767       -0.22528
H          4.13312       -2.11315       -2.26372
H          4.79792        0.02219       -3.27877
H          4.14976        2.15941       -2.30341
H          2.15315        1.98086       -0.79661
H          3.96816        1.47170        1.08310
18 18 18 18 18 18 18 18 18 18 18 18 18 18 18 18 18 18 18 18 18 18 18 18 18 18 18 18 18 18 18 18 18 18 18 18 18 18 18 18 18 18 18 18 18 18 18 18 18
C([O-])(=O)C1(O)(C=CC=CC(O)1)
InChI=1S/C7H8O4/c8-5-3-1-2-4-7(5,11)6(9)10/h1-5,8,11H,(H,9,10)/p-1/t5-,7+/m0/s1
