12
metacyc CPD-20544  -76.460077048 -76.460077048 -76.460077048 -76.460077048 -76.460077048 -76.460077048 -76.460077048 -76.460077048 -76.460077048 -76.460077048 -76.460077048 -76.460077048 -76.460077048 -76.460077048 -76.460077048
C          1.03022       -0.69556       -0.10238
C          0.99747        0.63922       -0.04426
O          2.07585        1.48012       -0.06135
C         -0.38075        1.20317        0.04175
N         -1.15288        0.00021        0.01330
C         -0.37397       -1.12606       -0.06377
O         -0.75544       -2.27945       -0.09752
H          1.86017       -1.37273       -0.16742
H          2.88566        0.94432       -0.13811
H         -0.64014        1.82485       -0.81830
H         -0.56435        1.73181        0.98030
H         -2.16104       -0.05754        0.04930
12 12 12 12 12 12 12 12 12 12 12 12 12 12 12 12 12 12 12 12 12 12 12 12 12 12 12 12 12 12 12
C1(=C(O)CNC(=O)1)
InChI=1S/C4H5NO2/c6-3-1-4(7)5-2-3/h1,6H,2H2,(H,5,7)
