18
metacyc CPD-12825  -208.734793592 -208.734793592 -208.734793592 -208.734793592 -208.734793592 -208.734793592 -208.734793592 -208.734793592 -208.734793592 -208.734793592 -208.734793592 -208.734793592 -208.734793592 -208.734793592 -208.734793592
C          1.04758       -0.07674       -0.12424
C          0.48689        1.26002        0.38893
C          0.94806        2.45599       -0.46886
C          0.39026        3.78971        0.04756
O          0.85308        4.85692       -0.78076
O          2.38393        2.54465       -0.50816
O         -0.93831        1.20188        0.44387
O          2.46752       -0.12140       -0.08478
H          0.71574       -0.27224       -1.15005
H          0.66470       -0.89923        0.48967
H          0.85573        1.40709        1.41148
H          0.61713        2.32200       -1.50572
H          0.73977        3.99181        1.06506
H         -0.70346        3.80170        0.03815
H          1.78700        4.66171       -0.98788
H          2.69259        2.69220        0.40731
H         -1.27400        0.97931       -0.44288
H          2.79360        0.63523       -0.61412
18 18 18 18 18 18 18 18 18 18 18 18 18 18 18 18 18 18 18 18 18 18 18 18 18 18 18 18 18 18 18 18 18 18 18 18 18 18 18 18 18 18 18 18 18 18 18 18 18
C(C(C(CO)O)O)O
InChI=1S/C4H10O4/c5-1-3(7)4(8)2-6/h3-8H,1-2H2/t3-,4-/m1/s1
