25
metacyc CPD-18776  -186.59200704 -186.59200704 -186.59200704 -186.59200704 -186.59200704 -186.59200704 -186.59200704 -186.59200704 -186.59200704 -186.59200704 -186.59200704 -186.59200704 -186.59200704 -186.59200704 -186.59200704
C          1.66802        0.58057        1.12025
O          2.26374       -0.12605        0.04151
C          2.93045        0.59550       -0.94308
C          2.86252        2.08508       -1.07132
O          2.22286        2.77924       -0.27679
C          3.61872        2.79914       -2.16490
C          4.18189        1.96266       -3.31169
C          3.26003        2.04264       -4.55058
O          3.87294        1.41110       -5.67554
O          5.44420        2.55161       -3.72410
C          4.50491        0.51011       -2.92667
C          3.69204       -0.08649       -1.81676
O          3.78292       -1.47052       -1.70189
H          1.29873       -0.15595        1.84060
H          0.80364        1.15559        0.77532
H          2.39750        1.20965        1.64107
H          4.42012        3.36336       -1.67283
H          2.92289        3.54528       -2.57360
H          3.09481        3.08625       -4.84198
H          2.29032        1.57082       -4.37007
H          4.79531        1.73368       -5.69742
H          5.35610        3.52241       -3.70585
H          5.56198        0.42526       -2.63966
H          4.40155       -0.13426       -3.81003
H          4.39404       -1.81623       -2.37522
25 25 25 25 25 25 25 25 25 25 25 25 25 25 25 25 25 25 25 25 25 25 25 25 25 25 25 25 25 25 25 25 25 25 25 25 25 25 25 25 25 25 25 25 25 25 25 25 25 25 25 25 25 25 25 25 25 25 25 25 25 25 25 25 25 25 25 25 25 25
COC1(C(=O)CC(CO)(O)CC(O)=1)
InChI=1S/C8H12O5/c1-13-7-5(10)2-8(12,4-9)3-6(7)11/h9-10,12H,2-4H2,1H3/t8-/m1/s1
