14
metacyc CPD-13061  -566.0803468 -566.0803468 -566.0803468 -566.0803468 -566.0803468 -566.0803468 -566.0803468 -566.0803468 -566.0803468 -566.0803468 -566.0803468 -566.0803468 -566.0803468 -566.0803468 -566.0803468
C          1.03523       -0.02795       -0.01632
O          0.30426        0.60706       -0.78003
C          2.56865        0.05904        0.00028
O          3.02926        1.04220       -0.93705
C          3.09759        0.43672        1.37734
O          2.51639        1.70456        1.79262
C          2.69599       -0.68927        2.34822
O          3.36561       -1.75102        2.28647
O          1.68466       -0.38872        3.06182
H          0.59057       -0.75951        0.68337
H          2.94971       -0.91275       -0.32530
H          2.77757        1.89228       -0.52440
H          4.18336        0.57329        1.36522
H          1.90238        1.42374        2.51719
14 14 14 14 14 14 14 14 14 14 14 14 14 14 14 14 14 14 14 14 14 14 14 14 14 14 14 14 14 14 14 14 14 14 14 14 14
C(=O)C(O)C(O)C(=O)[O-]
InChI=1S/C4H6O5/c5-1-2(6)3(7)4(8)9/h1-3,6-7H,(H,8,9)/p-1/t2-,3+/m0/s1
