19
metacyc CPD-18111  -178.623989072 -178.623989072 -178.623989072 -178.623989072 -178.623989072 -178.623989072 -178.623989072 -178.623989072 -178.623989072 -178.623989072 -178.623989072 -178.623989072 -178.623989072 -178.623989072 -178.623989072
C          0.94389       -0.01576        0.07195
C          2.44427        0.02542        0.07409
C          3.13486        1.24715        0.07322
C          4.54241        1.26669        0.07545
N          5.23131        2.55747        0.07468
O          4.54509        3.58831        0.07218
O          6.47339        2.53996        0.07659
C          5.26383        0.06861        0.07844
C          4.56253       -1.13664        0.07898
C          3.17252       -1.17069        0.07675
O          5.24563       -2.32105        0.08188
O          6.63193       -0.04700        0.08102
H          0.51443        0.99142        0.07270
H          0.57999       -0.53648        0.96349
H          0.58245       -0.53438       -0.82179
H          2.56807        2.17754        0.07092
H          2.66304       -2.13176        0.07721
H          6.19120       -2.06815        0.08335
H          7.03345        0.84936        0.08041
19 19 19 19 19 19 19 19 19 19 19 19 19 19 19 19 19 19 19 19 19 19 19 19 19 19 19 19 19 19 19 19 19 19 19 19 19 19 19 19 19 19 19 19 19 19 19 19 19 19 19 19
CC1(C=C([N+](=O)[O-])C(=C(C=1)O)O)
InChI=1S/C7H7NO4/c1-4-2-5(8(11)12)7(10)6(9)3-4/h2-3,9-10H,1H3
