20
metacyc CPD-329  -531.5814886 -531.5814886 -531.5814886 -531.5814886 -531.5814886 -531.5814886 -531.5814886 -531.5814886 -531.5814886 -531.5814886 -531.5814886 -531.5814886 -531.5814886 -531.5814886 -531.5814886
C          0.89638       -0.00280        2.93213
C          0.38607       -0.11356        1.49200
O          0.91761       -1.33416        0.93762
C         -1.13255       -0.11589        1.35530
H         -1.42771       -0.26507        0.31084
O         -1.73343       -1.18481        2.11072
C         -2.89363       -0.77484        2.71634
O         -3.73740       -1.54646        3.13957
C         -2.92939        0.74625        2.79193
O         -4.15076        1.38044        2.51306
C         -1.79105        1.12463        1.88216
O         -1.46653        2.26392        1.58126
O          2.32262        0.02423        2.93122
H          0.59162       -0.86704        3.53078
H          0.54292        0.91009        3.41904
H          0.81464        0.70076        0.89659
H          0.47269       -2.08230        1.38092
H         -2.62928        1.01184        3.81170
H         -4.41696        1.17723        1.59994
H          2.61380       -0.60908        2.24547
20 20 20 20 20 20 20 20 20 20 20 20 20 20 20 20 20 20 20 20 20 20 20 20 20 20 20 20 20 20 20 20 20 20 20 20 20 20 20 20 20 20 20 20 20 20 20 20 20 20 20 20 20 20 20
C(C(O)[CH]1(OC(=O)C(O)C(=O)1))O
InChI=1S/C6H8O6/c7-1-2(8)5-3(9)4(10)6(11)12-5/h2,4-5,7-8,10H,1H2/t2-,4?,5+/m0/s1
