21
metacyc CPD-19692  -659.94662952 -659.94662952 -659.94662952 -659.94662952 -659.94662952 -659.94662952 -659.94662952 -659.94662952 -659.94662952 -659.94662952 -659.94662952 -659.94662952 -659.94662952 -659.94662952 -659.94662952
C          0.99871        0.11848        0.22135
C          0.46684       -1.30447        0.44886
O          0.84380       -1.75028        1.76193
C         -1.05537       -1.37500        0.29647
O         -1.44908       -0.90501       -0.98922
C         -1.51300       -2.81018        0.50674
O         -1.76084       -3.59491       -0.40014
C         -1.71358       -3.22228        1.93841
O         -2.48151       -2.57461        2.64817
C         -0.99712       -4.38987        2.57969
O         -1.42542       -4.57981        3.84603
O         -0.14193       -5.04148        2.01761
O          2.42378        0.13139        0.28193
H          0.63738        0.79535        1.00291
H          0.69984        0.51856       -0.75251
H          0.95245       -1.97938       -0.26771
H          0.85008       -0.98408        2.36654
H         -1.54862       -0.74256        1.04151
H         -1.26551       -1.61786       -1.63352
H         -2.11938       -3.91795        4.07457
H          2.70873       -0.55264        0.91516
21 21 21 21 21 21 21 21 21 21 21 21 21 21 21 21 21 21 21 21 21 21 21 21 21 21 21 21 21 21 21 21 21 21 21 21 21 21 21 21 21 21 21 21 21 21 21 21 21 21 21 21 21 21 21 21 21 21
C(C(O)C(O)C(=O)C(=O)C(O)=O)O
InChI=1S/C6H8O7/c7-1-2(8)3(9)4(10)5(11)6(12)13/h2-3,7-9H,1H2,(H,12,13)/t2-,3+/m0/s1
