28
metacyc CPD-9000  -157.80064784 -157.80064784 -157.80064784 -157.80064784 -157.80064784 -157.80064784 -157.80064784 -157.80064784 -157.80064784 -157.80064784 -157.80064784 -157.80064784 -157.80064784 -157.80064784 -157.80064784
C          0.99135       -0.14580        0.05498
C          0.21838        0.85731       -0.77632
C          0.49993        0.68608       -2.26913
C          0.08664       -0.68603       -2.81203
C         -1.42767       -1.00037       -2.72880
O         -2.20989       -0.00313       -2.74294
O         -1.72109       -2.22794       -2.62127
N          0.44311       -0.74637       -4.24053
N          0.19975       -0.89264        0.89212
C          0.71170       -1.92204        1.77272
C          1.57755       -1.37466        2.91083
C          0.86348       -0.34694        3.78218
C         -0.33483       -0.87987        4.56811
O         -0.28702       -2.09879        4.89623
O         -1.21843       -0.01576        4.83513
O          2.21343       -0.25209       -0.02153
H          0.53905        1.85637       -0.45363
H         -0.85542        0.79701       -0.57019
H          1.57257        0.83731       -2.44819
H         -0.01960        1.48701       -2.81128
H          0.64215       -1.47545       -2.29404
H         -0.80923       -0.80797        0.82435
H          1.30449       -2.61472        1.16467
H         -0.14900       -2.47406        2.16102
H          2.47968       -0.91095        2.49504
H          1.92100       -2.21691        3.52186
H          0.55099        0.50986        3.17397
H          1.57740        0.03884        4.52084
28 28 28 28 28 28 28 28 28 28 28 28 28 28 28 28 28 28 28 28 28 28 28 28 28 28 28 28 28 28 28 28 28 28 28 28 28 28 28 28 28 28 28 28 28 28 28 28 28 28 28 28 28 28 28 28 28 28 28 28 28 28 28 28 28 28 28 28 28 28 28 28 28 28 28 28 28 28 28
C(CCC(C([O-])=O)[N+])(NCCCC(=O)[O-])=O
InChI=1S/C9H16N2O5/c10-6(9(15)16)3-4-7(12)11-5-1-2-8(13)14/h6H,1-5,10H2,(H,11,12)(H,13,14)(H,15,16)/p-1/t6-/m0/s1
