17
metacyc CPD-14344  -113.617934192 -113.617934192 -113.617934192 -113.617934192 -113.617934192 -113.617934192 -113.617934192 -113.617934192 -113.617934192 -113.617934192 -113.617934192 -113.617934192 -113.617934192 -113.617934192 -113.617934192
C         -1.36589       -0.06450       -0.04588
C         -0.70760        1.16607       -0.04314
C          0.70078        1.24462       -0.04269
C          1.44039        0.04296       -0.05114
N          2.84999        0.04119        0.07543
C          0.77147       -1.18976       -0.02613
C         -0.62083       -1.23318       -0.03907
O         -1.29120       -2.42358       -0.03653
C          1.36726        2.61001       -0.09238
O          0.63841        3.62771        0.13212
O          2.61040        2.63952       -0.38317
H         -2.44980       -0.10094       -0.04828
H         -1.28740        2.08838       -0.04686
H          3.17320        1.01556       -0.11223
H          3.29440       -0.60002       -0.56634
H          1.35576       -2.10147        0.01952
H         -0.62505       -3.12914       -0.03991
17 17 17 17 17 17 17 17 17 17 17 17 17 17 17 17 17 17 17 17 17 17 17 17 17 17 17 17 17 17 17 17 17 17 17 17 17 17 17 17 17 17 17 17 17 17
C1(=CC(=C(N)C=C(O)1)C([O-])=O)
InChI=1S/C7H7NO3/c8-6-3-4(9)1-2-5(6)7(10)11/h1-3,9H,8H2,(H,10,11)/p-1
