22
metacyc CPD-12482  -90.249030624 -90.249030624 -90.249030624 -90.249030624 -90.249030624 -90.249030624 -90.249030624 -90.249030624 -90.249030624 -90.249030624 -90.249030624 -90.249030624 -90.249030624 -90.249030624 -90.249030624
C          0.99682        0.00323        0.02150
N          2.43295        0.02446        0.02075
C          3.23712        1.18160        0.02067
O          2.89910        2.35029        0.02141
N          4.56219        0.69819        0.01956
C          4.54031       -0.66782        0.01916
C          3.26525       -1.06774        0.01992
C          2.95007       -2.49759        0.01973
O          1.80728       -2.93732        0.01956
N          4.06292       -3.30581        0.01962
C          5.38437       -2.90570        0.01826
O          6.27735       -3.74929        0.01712
N          5.60189       -1.52778        0.01811
C          6.96142       -1.01750        0.01595
H          0.60391        1.02374        0.02217
H          0.64321       -0.51545        0.91709
H          0.64228       -0.51460       -0.87422
H          5.36680        1.30299        0.01942
H          3.90161       -4.30167        0.01941
H          7.69890       -1.82468        0.01688
H          7.11650       -0.40452        0.90956
H          7.11471       -0.40824       -0.88054
22 22 22 22 22 22 22 22 22 22 22 22 22 22 22 22 22 22 22 22 22 22 22 22 22 22 22 22 22 22 22 22 22 22 22 22 22 22 22 22 22 22 22 22 22 22 22 22 22 22 22 22 22 22 22 22 22 22 22 22 22
CN1(C(=O)NC2(=C1C(=O)NC(=O)N(C)2))
InChI=1S/C7H8N4O3/c1-10-3-4(8-6(10)13)11(2)7(14)9-5(3)12/h1-2H3,(H,8,13)(H,9,12,14)
