16
metacyc CPD-16876  -368.088797456 -368.088797456 -368.088797456 -368.088797456 -368.088797456 -368.088797456 -368.088797456 -368.088797456 -368.088797456 -368.088797456 -368.088797456 -368.088797456 -368.088797456 -368.088797456 -368.088797456
C          0.88659       -0.08924        0.02296
O          1.00238       -1.25458       -0.48084
C          0.12910        0.91648       -0.95194
O          0.36227        0.49225       -2.30727
N         -1.30493        0.90462       -0.81135
C         -1.87267        2.12270       -1.06262
C         -0.77352        3.13735       -1.23110
C          0.48920        2.38631       -0.80932
O         -3.07005        2.34446       -1.16036
O          1.27754        0.35829        1.13467
H          0.62130       -0.45093       -2.16894
H         -1.83422        0.04617       -0.77967
H         -0.95367        4.00236       -0.58719
H         -0.72697        3.44908       -2.27779
H          0.72887        2.65022        0.22663
H          1.34081        2.67658       -1.43458
16 16 16 16 16 16 16 16 16 16 16 16 16 16 16 16 16 16 16 16 16 16 16 16 16 16 16 16 16 16 16 16 16 16 16 16 16 16 16 16 16 16 16
C(=O)(C1(O)(NC(CC1)=O))[O-]
InChI=1S/C5H7NO4/c7-3-1-2-5(10,6-3)4(8)9/h10H,1-2H2,(H,6,7)(H,8,9)/p-1/t5-/m1/s1
