15
metacyc CPD-11863  -521.80237184 -521.80237184 -521.80237184 -521.80237184 -521.80237184 -521.80237184 -521.80237184 -521.80237184 -521.80237184 -521.80237184 -521.80237184 -521.80237184 -521.80237184 -521.80237184 -521.80237184
C          1.04440       -0.03188       -0.02786
C          2.38227       -0.17936        0.09480
C          2.87104       -1.32358        1.03227
O          4.12358       -1.46889        1.14954
O          1.96699       -2.01432        1.59956
C          3.23337        0.74540       -0.66087
C          4.56748        0.90532       -0.79143
O          5.50805        0.11172       -0.14287
C          5.12402        2.06380       -1.73840
O          4.24755        2.77743       -2.32383
O          6.38547        2.17004       -1.82312
H          0.35928       -0.68425        0.50519
H          0.60266        0.73310       -0.65470
H          2.64837        1.45969       -1.24479
H          5.01768       -0.55595        0.40305
15 15 15 15 15 15 15 15 15 15 15 15 15 15 15 15 15 15 15 15 15 15 15 15 15 15 15 15 15 15 15 15 15 15 15 15 15 15 15 15
C=C(C([O-])=O)C=C(O)C(=O)[O-]
InChI=1S/C6H6O5/c1-3(5(8)9)2-4(7)6(10)11/h2,7H,1H2,(H,8,9)(H,10,11)/p-2/b4-2+
