29
metacyc CPD-15308  -48.311334224 -48.311334224 -48.311334224 -48.311334224 -48.311334224 -48.311334224 -48.311334224 -48.311334224 -48.311334224 -48.311334224 -48.311334224 -48.311334224 -48.311334224 -48.311334224 -48.311334224
C          2.25978       -0.73858        0.11392
N          1.08823       -1.42571        0.10613
C         -0.03292       -0.67342        0.05856
N         -1.23246       -1.39410       -0.00377
C         -2.33434       -0.71739       -0.07104
N         -3.52711       -1.35315       -0.16921
N         -2.36685        0.64238       -0.05300
C         -1.24291        1.43891       -0.00062
O         -1.32450        2.66201        0.00764
C          0.04094        0.71555        0.03946
N          1.20666        1.42327        0.03715
C          2.32980        0.65541        0.06566
C          3.66745        1.36615       -0.01493
O          3.49463        2.62796       -0.67528
C          4.28265        1.59104        1.37627
O          4.56565        0.31823        1.98333
C          5.57221        2.42758        1.28550
O          6.15272        2.57729        2.58247
H          3.15342       -1.35517        0.14064
H         -3.47090       -2.34588        0.04290
H         -4.35281       -0.90127        0.19911
H         -3.24561        1.13518       -0.12322
H          4.34748        0.76704       -0.63197
H          2.52853        2.80021       -0.67330
H          3.57654        2.11435        2.03382
H          5.53513        0.23249        2.05546
H          5.39699        3.42277        0.86596
H          6.31817        1.91484        0.66956
H          5.49956        3.03496        3.14234
29 29 29 29 29 29 29 29 29 29 29 29 29 29 29 29 29 29 29 29 29 29 29 29 29 29 29 29 29 29 29 29 29 29 29 29 29 29 29 29 29 29 29 29 29 29 29 29 29 29 29 29 29 29 29 29 29 29 29 29 29 29 29 29 29 29 29 29 29 29 29 29 29 29 29 29 29 29 29 29 29 29
C1(N=C2(N=C(N)NC(=O)C(=NC=1C(O)C(O)CO)2))
InChI=1S/C9H11N5O4/c10-9-13-7-5(8(18)14-9)12-3(1-11-7)6(17)4(16)2-15/h1,4,6,15-17H,2H2,(H3,10,11,13,14,18)/t4-,6-/m0/s1
