24
metacyc CPD-15380  -55.260920568 -55.260920568 -55.260920568 -55.260920568 -55.260920568 -55.260920568 -55.260920568 -55.260920568 -55.260920568 -55.260920568 -55.260920568 -55.260920568 -55.260920568 -55.260920568 -55.260920568
C          1.02944        0.22701        0.18539
O          0.42511       -0.28104       -0.99178
C          2.52488        0.07494        0.12324
C          3.29639        1.23627        0.19596
N          4.64761        1.27351        0.18474
C          5.29543        0.09284        0.06347
C          4.60889       -1.12162       -0.04023
C          3.20438       -1.15577        0.00832
C          2.51701       -2.49079       -0.15414
O          1.25885       -2.54197        0.51142
O          5.27979       -2.31218       -0.18942
C          6.80006        0.17182       -0.00023
O          7.40136       -0.98165        0.59912
H          0.61425       -0.26550        1.07284
H          0.74487        1.28044        0.26493
H          0.39662       -1.25044       -0.86217
H          2.82939        2.21674        0.26526
H          3.11758       -3.31330        0.24771
H          2.34672       -2.68196       -1.21955
H          1.46552       -2.66004        1.45563
H          6.23655       -2.13905       -0.04537
H          7.16999        1.06710        0.51119
H          7.11629        0.21301       -1.04718
H          7.55149       -0.74204        1.53325
24 24 24 24 24 24 24 24 24 24 24 24 24 24 24 24 24 24 24 24 24 24 24 24 24 24 24 24 24 24 24 24 24 24 24 24 24 24 24 24 24 24 24 24 24 24 24 24 24 24 24 24 24 24 24 24 24 24 24 24 24 24 24 24 24 24 24
C(O)C1(=CN=C(C(=C(CO)1)O)CO)
InChI=1S/C8H11NO4/c10-2-5-1-9-7(4-12)8(13)6(5)3-11/h1,10-13H,2-4H2
