21
metacyc CPD-20946  -560.78980432 -560.78980432 -560.78980432 -560.78980432 -560.78980432 -560.78980432 -560.78980432 -560.78980432 -560.78980432 -560.78980432 -560.78980432 -560.78980432 -560.78980432 -560.78980432 -560.78980432
C          0.89876       -0.17896        0.12100
C          2.41400       -0.07340        0.14013
C          2.99656        1.10368        0.91286
O          3.07814        2.28375        0.05786
C          2.22202        1.47608        2.20335
O          2.49376        0.83999        3.25361
O          1.43308        2.45670        2.02336
C          4.37907        0.59168        1.23449
O          5.23207        0.76158        0.06365
C          4.12357       -0.90471        1.46921
O          5.26464       -1.66471        1.07899
O          2.99608       -1.28416        0.66015
H          0.44392        0.73372       -0.27723
H          0.49385       -0.37575        1.11906
H          0.58865       -1.02065       -0.50830
H          2.73779       -0.00799       -0.90775
H          2.36553        2.85465        0.44671
H          4.89044        1.07818        2.06942
H          4.84244        1.54887       -0.37792
H          3.88637       -1.13676        2.51115
H          5.66775       -1.10166        0.38798
21 21 21 21 21 21 21 21 21 21 21 21 21 21 21 21 21 21 21 21 21 21 21 21 21 21 21 21 21 21 21 21 21 21 21 21 21 21 21 21 21 21 21 21 21 21 21 21 21 21 21 21 21 21 21 21 21 21
CC1(C(O)(C([O-])=O)C(O)C(O)O1)
InChI=1S/C6H10O6/c1-2-6(11,5(9)10)3(7)4(8)12-2/h2-4,7-8,11H,1H3,(H,9,10)/p-1/t2-,3+,4?,6+/m0/s1
