14
metacyc CPD-10303  -133.4691816 -133.4691816 -133.4691816 -133.4691816 -133.4691816 -133.4691816 -133.4691816 -133.4691816 -133.4691816 -133.4691816 -133.4691816 -133.4691816 -133.4691816 -133.4691816 -133.4691816
C          0.85579       -0.04926       -0.12259
C          2.38314       -0.02089       -0.07387
O          2.81195        1.20965       -0.69721
C          3.00260       -0.12306        1.32565
N          2.45561        0.92182        2.20990
C          2.84531       -1.49213        2.02565
O          2.25416       -2.39217        1.36685
O          3.38811       -1.58993        3.16654
H          0.51263        0.06702       -1.15802
H          0.41388        0.78302        0.43741
H          0.44502       -0.98529        0.26382
H          2.76490       -0.82896       -0.70472
H          2.87171        1.86099        0.02599
H          4.07903        0.06524        1.24015
14 14 14 14 14 14 14 14 14 14 14 14 14 14 14 14 14 14 14 14 14 14 14 14 14 14 14 14 14 14 14 14 14 14 14 14 14
CC(O)C([N+])C([O-])=O
InChI=1S/C4H9NO3/c1-2(6)3(5)4(7)8/h2-3,6H,5H2,1H3,(H,7,8)/t2-,3-/m1/s1
