8
metacyc CPD-1831  -352.49463616 -352.49463616 -352.49463616 -352.49463616 -352.49463616 -352.49463616 -352.49463616 -352.49463616 -352.49463616 -352.49463616 -352.49463616 -352.49463616 -352.49463616 -352.49463616 -352.49463616
C          0.97401        0.13137       -0.06294
C          0.20272        0.91856       -1.10897
C         -0.41038        1.54433       -1.94058
C         -1.18168        2.33145       -2.98675
O         -1.85061        3.33067       -2.57475
O         -1.09492        1.92639       -4.18840
O          0.28827       -0.54129        0.76951
O          2.24186        0.20970       -0.10570
8 8 8 8 8 8 8 8 8 8 8 8 8 8 8 8 8 8 8
C(C#CC([O-])=O)(=O)[O-]
InChI=1S/C4H2O4/c5-3(6)1-2-4(7)8/h(H,5,6)(H,7,8)/p-2
