16
metacyc CPD-18251  -145.05890344 -145.05890344 -145.05890344 -145.05890344 -145.05890344 -145.05890344 -145.05890344 -145.05890344 -145.05890344 -145.05890344 -145.05890344 -145.05890344 -145.05890344 -145.05890344 -145.05890344
C          0.96468       -0.04091        0.07274
N          0.29695        1.16260        0.55553
C          0.05208        2.23218       -0.24536
N         -0.39252        3.30258        0.46038
O          0.16862        2.27200       -1.46095
C          2.48725        0.05882        0.14105
C          2.99930        0.27503        1.58344
O          2.17047        0.04796        2.51669
O          4.17472        0.73806        1.68293
N          3.07517       -1.19910       -0.34054
H          0.64447       -0.21958       -0.96190
H          0.58786       -0.86805        0.68298
H          0.51235        1.35493        1.53074
H         -0.87430        3.11448        1.32539
H         -0.72734        4.07070       -0.10361
H          2.84216        0.88516       -0.48527
16 16 16 16 16 16 16 16 16 16 16 16 16 16 16 16 16 16 16 16 16 16 16 16 16 16 16 16 16 16 16 16 16 16 16 16 16 16 16 16 16 16 16
C(NC(N)=O)C(C([O-])=O)[N+]
InChI=1S/C4H9N3O3/c5-2(3(8)9)1-7-4(6)10/h2H,1,5H2,(H,8,9)(H3,6,7,10)/t2-/m0/s1
