22
metacyc CPD-13129  -429.98470104 -429.98470104 -429.98470104 -429.98470104 -429.98470104 -429.98470104 -429.98470104 -429.98470104 -429.98470104 -429.98470104 -429.98470104 -429.98470104 -429.98470104 -429.98470104 -429.98470104
C          3.05801        1.50365       -2.47887
H          2.81180        1.89087       -3.47879
O          3.56575        2.16781       -1.59093
C          2.71071        0.04584       -2.26887
O          2.02859       -0.51888       -3.11820
C          3.20009       -0.61648       -0.98876
O          2.80341       -2.00525       -0.94281
C          4.71883       -0.56997       -0.75848
O          5.01877       -1.30823        0.43880
C          5.51993       -1.16677       -1.92511
O          5.27214       -0.39993       -3.11256
C          7.02616       -1.17967       -1.63438
O          7.70859       -1.68273       -2.78679
H          2.68500       -0.14214       -0.14637
H          2.70460       -2.29753       -1.87245
H          5.04136        0.46255       -0.59635
H          4.37378       -2.04603        0.46909
H          5.20183       -2.19663       -2.13013
H          6.14446       -0.25208       -3.53419
H          7.28294       -1.79839       -0.76972
H          7.39453       -0.16260       -1.46886
H          7.45159       -2.61728       -2.88949
22 22 22 22 22 22 22 22 22 22 22 22 22 22 22 22 22 22 22 22 22 22 22 22 22 22 22 22 22 22 22 22 22 22 22 22 22 22 22 22 22 22 22 22 22 22 22 22 22 22 22 22 22 22 22 22 22 22 22 22 22
[CH](=O)C(=O)C(O)C(O)C(O)CO
InChI=1S/C6H10O6/c7-1-3(9)5(11)6(12)4(10)2-8/h1,4-6,8,10-12H,2H2/t4-,5-,6-/m1/s1
