23
metacyc CPD-15406  -236.2978852 -236.2978852 -236.2978852 -236.2978852 -236.2978852 -236.2978852 -236.2978852 -236.2978852 -236.2978852 -236.2978852 -236.2978852 -236.2978852 -236.2978852 -236.2978852 -236.2978852
C          0.97284       -0.02165        0.23650
C          2.49065       -0.02883        0.08722
O          3.06101        0.91307        0.99403
C          3.09598       -1.42684        0.31790
O          2.60596       -2.38980       -0.63103
C          4.64295       -1.50182        0.32968
O          4.99785       -2.87338        0.61478
C          5.32743       -1.09843       -0.98624
O          5.00775        0.22737       -1.38227
C          6.83490       -1.24562       -0.82303
H          7.20141       -2.27809       -0.69322
O          7.61137       -0.29286       -0.83701
H          0.58300        0.98923        0.06906
H          0.67287       -0.31079        1.24852
H          0.49389       -0.69680       -0.47927
H          2.69704        0.31257       -0.93149
H          2.62149        0.81641        1.85406
H          2.75953       -1.78794        1.29903
H          2.62900       -1.97523       -1.51370
H          5.02888       -0.88900        1.15302
H          4.27994       -3.42333        0.23538
H          5.03280       -1.76947       -1.79965
H          5.52669        0.82859       -0.80918
23 23 23 23 23 23 23 23 23 23 23 23 23 23 23 23 23 23 23 23 23 23 23 23 23 23 23 23 23 23 23 23 23 23 23 23 23 23 23 23 23 23 23 23 23 23 23 23 23 23 23 23 23 23 23 23 23 23 23 23 23 23 23 23
CC(O)C(O)C(O)C(O)[CH]=O
InChI=1S/C6H12O5/c1-3(8)5(10)6(11)4(9)2-7/h2-6,8-11H,1H3/t3-,4-,5-,6-/m1/s1
