17
metacyc CPD-17  -53.643193704 -53.643193704 -53.643193704 -53.643193704 -53.643193704 -53.643193704 -53.643193704 -53.643193704 -53.643193704 -53.643193704 -53.643193704 -53.643193704 -53.643193704 -53.643193704 -53.643193704
C         -1.39802       -0.41904        0.13769
C         -1.04378        1.00781        0.10832
O         -1.94440        1.83993        0.21801
C          0.38610        1.43053       -0.11315
C          1.44798        0.34395        0.03852
O          2.12622        0.50797        1.29320
C          1.00290       -1.11597       -0.10163
C         -0.46949       -1.36852        0.03801
O         -0.86905       -2.69271        0.05111
H         -2.45169       -0.65795        0.21758
H          0.58871        2.24699        0.58971
H          0.42960        1.83924       -1.13020
H          2.22427        0.52928       -0.71435
H          1.48161        0.41006        2.01161
H          1.52786       -1.73010        0.64146
H          1.30595       -1.48559       -1.08916
H         -0.09017       -3.27051       -0.03391
17 17 17 17 17 17 17 17 17 17 17 17 17 17 17 17 17 17 17 17 17 17 17 17 17 17 17 17 17 17 17 17 17 17 17 17 17 17 17 17 17 17 17 17 17 17
C1(C(=O)CC(O)CC=1O)
InChI=1S/C6H8O3/c7-4-1-5(8)3-6(9)2-4/h1,6-7,9H,2-3H2
