17
metacyc CPD-19090  -129.837775032 -129.837775032 -129.837775032 -129.837775032 -129.837775032 -129.837775032 -129.837775032 -129.837775032 -129.837775032 -129.837775032 -129.837775032 -129.837775032 -129.837775032 -129.837775032 -129.837775032
C          2.95406        1.42858       -0.49856
C          2.56905        0.01022       -0.09475
C          3.14031       -1.10460       -0.99114
O          2.62573       -2.36082       -0.45528
C          2.62356       -0.99256       -2.42930
C          4.72387       -1.13661       -0.97113
O          5.27309       -0.77500        0.11256
O          5.28390       -1.49248       -2.05314
H          2.51013        2.14663        0.19868
H          2.58981        1.67542       -1.49994
H          4.03728        1.57546       -0.47905
H          1.47351       -0.06324       -0.07959
H          2.87512       -0.15822        0.94591
H          1.69060       -2.41031       -0.70002
H          1.52872       -0.94647       -2.44991
H          2.89980       -1.87684       -3.01569
H          3.01729       -0.10950       -2.94241
17 17 17 17 17 17 17 17 17 17 17 17 17 17 17 17 17 17 17 17 17 17 17 17 17 17 17 17 17 17 17 17 17 17 17 17 17 17 17 17 17 17 17 17 17 17
CCC(O)(C)C(=O)[O-]
InChI=1S/C5H10O3/c1-3-5(2,8)4(6)7/h8H,3H2,1-2H3,(H,6,7)/p-1
