15
metacyc CPD-9167  -540.12825 -540.12825 -540.12825 -540.12825 -540.12825 -540.12825 -540.12825 -540.12825 -540.12825 -540.12825 -540.12825 -540.12825 -540.12825 -540.12825 -540.12825
C          0.95938       -0.50182       -0.41722
C          0.40306        0.71005       -1.18030
C          1.34373        1.26271       -2.22036
C          0.92248        1.84827       -3.35463
C          1.86662        2.43265       -4.35680
O          3.09060        2.39133       -4.23176
C          1.29425        3.14553       -5.61047
O          0.02057        3.21106       -5.68979
O          2.11354        3.61888       -6.46599
O          1.99407       -0.28985        0.28189
O          0.27392       -1.56341       -0.50901
H          0.20313        1.49167       -0.43764
H         -0.55799        0.44178       -1.63602
H          2.40886        1.18772       -2.00712
H         -0.13202        1.94871       -3.58702
15 15 15 15 15 15 15 15 15 15 15 15 15 15 15 15 15 15 15 15 15 15 15 15 15 15 15 15 15 15 15 15 15 15 15 15 15 15 15 15
C(CC=CC(=O)C(=O)[O-])(=O)[O-]
InChI=1S/C6H6O5/c7-4(6(10)11)2-1-3-5(8)9/h1-2H,3H2,(H,8,9)(H,10,11)/p-2/b2-1-
