19
metacyc CPD-7418  -0.68708710784 -0.68708710784 -0.68708710784 -0.68708710784 -0.68708710784 -0.68708710784 -0.68708710784 -0.68708710784 -0.68708710784 -0.68708710784 -0.68708710784 -0.68708710784 -0.68708710784 -0.68708710784 -0.68708710784
C          2.69657        0.19584        1.19226
C          1.98190        1.25427        2.03370
C          0.91817        1.92867        1.57409
C          0.23849        2.95042        2.37062
C         -0.84794        2.65565        3.20518
C         -1.48124        3.66064        3.93455
C         -1.02695        4.97657        3.84278
C          0.05954        5.28301        3.02392
C          0.68993        4.27388        2.29208
O         -1.33863        1.38540        3.34899
O          3.68928       -0.32896        1.77085
O          2.21070       -0.03107        0.05026
H          2.38917        1.43990        3.02312
H          0.52465        1.73929        0.57775
H         -2.32247        3.41339        4.57423
H         -1.51763        5.75990        4.41292
H          0.42033        6.30508        2.95264
H          1.53857        4.51675        1.65643
H         -0.72934        0.79275        2.86606
19 19 19 19 19 19 19 19 19 19 19 19 19 19 19 19 19 19 19 19 19 19 19 19 19 19 19 19 19 19 19 19 19 19 19 19 19 19 19 19 19 19 19 19 19 19 19 19 19 19 19 19
C(C=CC1(=C(C=CC=C1)O))(=O)[O-]
InChI=1S/C9H8O3/c10-8-4-2-1-3-7(8)5-6-9(11)12/h1-6,10H,(H,11,12)/p-1/b6-5-
