22
metacyc CPD-8652  -136.99708856 -136.99708856 -136.99708856 -136.99708856 -136.99708856 -136.99708856 -136.99708856 -136.99708856 -136.99708856 -136.99708856 -136.99708856 -136.99708856 -136.99708856 -136.99708856 -136.99708856
C          1.23361        0.48061       -0.31731
O          0.86624        1.51339        0.31372
O          0.54902       -0.28090       -1.07326
C          2.71536        0.11579       -0.18363
N          3.39139        0.49797        1.10865
C          4.66572        0.87861        0.62094
C          4.63594        1.39387       -0.67434
C          3.39227        0.89427       -1.33609
C          5.76002        1.90607       -1.29715
C          6.97137        1.60535       -0.69914
O          8.15243        1.95958       -1.28744
C          7.02328        0.83953        0.47367
O          8.20860        0.25986        0.83072
C          5.87458        0.56608        1.20766
H          2.84786       -0.96823       -0.30268
H          2.85458        1.35912        1.37046
H          3.70261        0.16440       -2.09740
H          2.80452        1.67945       -1.81220
H          5.69484        2.36752       -2.27583
H          8.01515        2.86791       -1.61772
H          8.73575        0.30255        0.00850
H          5.90425       -0.03834        2.10360
22 22 22 22 22 22 22 22 22 22 22 22 22 22 22 22 22 22 22 22 22 22 22 22 22 22 22 22 22 22 22 22 22 22 22 22 22 22 22 22 22 22 22 22 22 22 22 22 22 22 22 22 22 22 22 22 22 22 22 22 22
C([O-])(=O)C1(NC2(=C(C1)C=C(O)C(O)=C2))
InChI=1S/C9H9NO4/c11-7-2-4-1-6(9(13)14)10-5(4)3-8(7)12/h2-3,6,10-12H,1H2,(H,13,14)/p-1/t6-/m0/s1
