15
metacyc CPD-9520  -85.48815744 -85.48815744 -85.48815744 -85.48815744 -85.48815744 -85.48815744 -85.48815744 -85.48815744 -85.48815744 -85.48815744 -85.48815744 -85.48815744 -85.48815744 -85.48815744 -85.48815744
C          0.91856       -0.15749       -0.00967
O          0.38662       -1.26090       -0.31718
O          0.37869        0.89480        0.43274
C          2.44423       -0.09633       -0.13485
C          3.06676        1.26736       -0.18478
N          2.81917        1.94046       -1.46192
C          4.60021        1.22493       -0.02855
O          5.30154        2.23394        0.10441
C          5.30052       -0.08749       -0.07603
C          4.59510       -1.22127       -0.13051
C          3.15752       -1.23446       -0.10750
H          2.69859        1.87988        0.64609
H          6.38140       -0.06711       -0.06834
H          5.09747       -2.18280       -0.16667
H          2.65575       -2.19889       -0.04990
15 15 15 15 15 15 15 15 15 15 15 15 15 15 15 15 15 15 15 15 15 15 15 15 15 15 15 15 15 15 15 15 15 15 15 15 15 15 15 15
C([O-])(=O)C1(C([N+])C(=O)C=CC=1)
InChI=1S/C7H7NO3/c8-6-4(7(10)11)2-1-3-5(6)9/h1-3,6H,8H2,(H,10,11)/t6-/m0/s1
