18
metacyc CPD-19826  -0.40871429104 -0.40871429104 -0.40871429104 -0.40871429104 -0.40871429104 -0.40871429104 -0.40871429104 -0.40871429104 -0.40871429104 -0.40871429104 -0.40871429104 -0.40871429104 -0.40871429104 -0.40871429104 -0.40871429104
C          2.10406       -1.40829        0.15430
C          2.45576        0.04333       -0.03897
O          2.19073        0.62954       -1.09100
C          3.15941        0.74191        1.10194
C          4.67311        0.57358        0.98545
C          5.40993        1.23948        2.14825
C          5.08712        0.62356        3.53250
O          4.72448       -0.59019        3.53332
O          5.14846        1.43168        4.50693
N          6.85706        1.08944        1.94351
H          1.63824       -1.79630       -0.75660
H          1.39443       -1.50481        0.97919
H          3.00573       -1.98773        0.35999
H          2.76807        0.33396        2.03935
H          2.88348        1.80170        1.07985
H          5.00572        1.01472        0.03598
H          4.92515       -0.49355        0.92540
H          5.17187        2.30939        2.16794
18 18 18 18 18 18 18 18 18 18 18 18 18 18 18 18 18 18 18 18 18 18 18 18 18 18 18 18 18 18 18 18 18 18 18 18 18 18 18 18 18 18 18 18 18 18 18 18 18
CC(=O)CCC(C(=O)[O-])[N+]
InChI=1S/C6H11NO3/c1-4(8)2-3-5(7)6(9)10/h5H,2-3,7H2,1H3,(H,9,10)
