22
metacyc CPD-469  -161.631501504 -161.631501504 -161.631501504 -161.631501504 -161.631501504 -161.631501504 -161.631501504 -161.631501504 -161.631501504 -161.631501504 -161.631501504 -161.631501504 -161.631501504 -161.631501504 -161.631501504
C          1.06839       -1.16841       -0.47502
C          2.56716       -1.15470       -0.59219
O          3.13024       -1.43100       -1.64664
N          3.20159       -0.91189        0.59659
C          4.66879       -0.84103        0.73440
C          5.11526        0.43594        1.52631
O          4.14891        1.11767        1.99220
O          6.36023        0.62270        1.62200
C          5.18294       -2.05632        1.51859
C          4.84052       -3.38207        0.83821
C          5.40606       -4.52923        1.63171
H          6.48743       -4.47907        1.84293
O          4.75313       -5.51227        1.96975
H          0.61967       -0.84125       -1.41353
H          0.72286       -0.50383        0.32389
H          0.74875       -2.19063       -0.25034
H          2.74548       -0.30586        1.27937
H          5.12578       -0.80547       -0.26165
H          4.76217       -2.05385        2.52979
H          6.27142       -1.99093        1.64472
H          5.27217       -3.42423       -0.16669
H          3.75770       -3.52280        0.76022
22 22 22 22 22 22 22 22 22 22 22 22 22 22 22 22 22 22 22 22 22 22 22 22 22 22 22 22 22 22 22 22 22 22 22 22 22 22 22 22 22 22 22 22 22 22 22 22 22 22 22 22 22 22 22 22 22 22 22 22 22
CC(=O)NC(C([O-])=O)CC[CH]=O
InChI=1S/C7H11NO4/c1-5(10)8-6(7(11)12)3-2-4-9/h4,6H,2-3H2,1H3,(H,8,10)(H,11,12)/p-1/t6-/m0/s1
