23
metacyc CPD-33  -501.074794 -501.074794 -501.074794 -501.074794 -501.074794 -501.074794 -501.074794 -501.074794 -501.074794 -501.074794 -501.074794 -501.074794 -501.074794 -501.074794 -501.074794
C          0.80531       -0.00882       -0.11690
C          2.33170        0.06655       -0.06246
O          2.66656        1.45075        0.06804
C          2.90395       -0.82142        1.07467
O          2.53766       -2.18348        0.80748
C          4.43928       -0.65253        1.24918
O          4.71333        0.73333        1.53021
C          4.98527       -1.56604        2.35876
O          4.67054       -2.95904        2.08805
C          6.53119       -1.40272        2.41964
O          6.94898       -0.21402        2.48942
O          7.15303       -2.50624        2.38533
H          0.42747        0.58213       -0.95636
H          0.36921        0.42166        0.79107
H          0.44768       -1.03554       -0.22591
H          2.72662       -0.28400       -1.02381
H          3.53387        1.48425        0.53330
H          2.42380       -0.52157        2.01496
H          3.17625       -2.74194        1.30986
H          4.92772       -0.90819        0.29993
H          5.64552        0.74439        1.88005
H          4.56679       -1.30694        3.33710
H          5.56918       -3.38030        2.13862
23 23 23 23 23 23 23 23 23 23 23 23 23 23 23 23 23 23 23 23 23 23 23 23 23 23 23 23 23 23 23 23 23 23 23 23 23 23 23 23 23 23 23 23 23 23 23 23 23 23 23 23 23 23 23 23 23 23 23 23 23 23 23 23
CC(O)C(O)C(O)C(O)C(=O)[O-]
InChI=1S/C6H12O6/c1-2(7)3(8)4(9)5(10)6(11)12/h2-5,7-10H,1H3,(H,11,12)/p-1/t2-,3+,4+,5-/m0/s1
