29
metacyc CPD-14794  -93.44206696 -93.44206696 -93.44206696 -93.44206696 -93.44206696 -93.44206696 -93.44206696 -93.44206696 -93.44206696 -93.44206696 -93.44206696 -93.44206696 -93.44206696 -93.44206696 -93.44206696
C          1.01991       -0.03894        0.03860
C          2.54238       -0.12774       -0.10325
O          2.95245       -1.43436       -0.54766
C          2.59114       -1.76196       -1.88338
O          3.09998       -3.05748       -2.17066
C          3.18303       -0.74903       -2.87346
O          4.62906       -0.84923       -2.85808
C          2.77647        0.67879       -2.48631
O          3.42841        1.62940       -3.34521
C          3.12852        0.98426       -1.01190
N          4.59658        1.10081       -0.88110
C          5.20405        1.50197        0.28554
C          6.70056        1.63107        0.17569
O          4.59751        1.73958        1.32536
H          0.65733       -0.83125        0.70237
H          0.49851       -0.16910       -0.91385
H          0.72282        0.92759        0.45565
H          2.94878       -0.02904        0.90833
H          1.50258       -1.81622       -1.97498
H          4.03185       -2.92729       -2.42346
H          2.88561       -0.97907       -3.90140
H          4.88065       -0.85521       -1.90825
H          1.69851        0.80185       -2.63811
H          4.17692        1.16365       -3.76846
H          2.72607        1.96530       -0.72810
H          5.08087        1.35944       -1.73151
H          7.07283        1.18338       -0.74954
H          7.16314        1.10889        1.01703
H          6.97296        2.68892        0.19681
29 29 29 29 29 29 29 29 29 29 29 29 29 29 29 29 29 29 29 29 29 29 29 29 29 29 29 29 29 29 29 29 29 29 29 29 29 29 29 29 29 29 29 29 29 29 29 29 29 29 29 29 29 29 29 29 29 29 29 29 29 29 29 29 29 29 29 29 29 29 29 29 29 29 29 29 29 29 29 29 29 29
CC1(OC(O)C(O)C(O)C(NC(C)=O)1)
InChI=1S/C8H15NO5/c1-3-5(9-4(2)10)6(11)7(12)8(13)14-3/h3,5-8,11-13H,1-2H3,(H,9,10)/t3-,5-,6+,7-,8?/m1/s1
