17
metacyc CPD-16451  -255.58104164 -255.58104164 -255.58104164 -255.58104164 -255.58104164 -255.58104164 -255.58104164 -255.58104164 -255.58104164 -255.58104164 -255.58104164 -255.58104164 -255.58104164 -255.58104164 -255.58104164
C          0.90800       -0.18400        0.12277
O          0.35317        0.47898        1.04240
O          0.38222       -0.95649       -0.72798
C          2.42323       -0.06648        0.00703
C          2.96278        0.89973        1.04125
N          4.41449        1.01942        0.97273
C          5.36487        0.20249        1.49606
C          6.53406        0.35670        0.87772
C          6.26746        1.32618       -0.20683
O          7.10162        1.73046       -1.00141
O          4.93465        1.66916       -0.15240
H          2.67248        0.27304       -1.00537
H          2.86181       -1.06267        0.13908
H          2.68845        0.57495        2.05314
H          2.52774        1.89654        0.90081
H          5.12391       -0.45649        2.31710
H          7.47791       -0.11763        1.05339
17 17 17 17 17 17 17 17 17 17 17 17 17 17 17 17 17 17 17 17 17 17 17 17 17 17 17 17 17 17 17 17 17 17 17 17 17 17 17 17 17 17 17 17 17 17
C([O-])(=O)CCN1(C=CC(=O)O1)
InChI=1S/C6H7NO4/c8-5(9)1-3-7-4-2-6(10)11-7/h2,4H,1,3H2,(H,8,9)/p-1
