23
metacyc CPD-14019  -246.00480704 -246.00480704 -246.00480704 -246.00480704 -246.00480704 -246.00480704 -246.00480704 -246.00480704 -246.00480704 -246.00480704 -246.00480704 -246.00480704 -246.00480704 -246.00480704 -246.00480704
C          0.95409        0.32523        0.18516
C          2.46238        0.13214        0.01736
C          2.86887       -1.32547       -0.25825
O          2.20372       -2.22581        0.62904
C          2.57269       -1.71720       -1.71202
O          3.15006       -3.00907       -1.96115
C          3.12632       -0.68487       -2.69188
O          4.57153       -0.71413       -2.63463
C          2.62317        0.71600       -2.31113
O          3.20426        1.68792       -3.17132
O          3.00813        1.01896       -0.97349
H          0.57973       -0.23157        1.05038
H          0.39527       -0.01015       -0.69322
H          0.71865        1.38481        0.32842
H          2.91616        0.42934        0.97151
H          3.94483       -1.43948       -0.07305
H          2.25752       -3.10861        0.20957
H          1.49184       -1.83253       -1.85155
H          4.07150       -2.84353       -2.25013
H          2.86194       -0.93874       -3.72518
H          4.83772       -0.13237       -1.89245
H          1.53713        0.79699       -2.42288
H          4.08413        1.35372       -3.41332
23 23 23 23 23 23 23 23 23 23 23 23 23 23 23 23 23 23 23 23 23 23 23 23 23 23 23 23 23 23 23 23 23 23 23 23 23 23 23 23 23 23 23 23 23 23 23 23 23 23 23 23 23 23 23 23 23 23 23 23 23 23 23 23
CC1(C(O)C(O)C(O)C(O)O1)
InChI=1S/C6H12O5/c1-2-3(7)4(8)5(9)6(10)11-2/h2-10H,1H3/t2-,3+,4+,5-,6+/m1/s1
