22
metacyc CPD-16415  -79.314238672 -79.314238672 -79.314238672 -79.314238672 -79.314238672 -79.314238672 -79.314238672 -79.314238672 -79.314238672 -79.314238672 -79.314238672 -79.314238672 -79.314238672 -79.314238672 -79.314238672
C          1.01949        0.09818        0.04333
C          2.53693       -0.01655       -0.11707
C          3.03407       -1.44100       -0.43976
O          2.50451       -2.41396        0.45394
C          2.73990       -1.82908       -1.89060
C          3.19399       -0.73808       -2.85401
O          4.63229       -0.69780       -2.89029
C          2.66623        0.64523       -2.42423
O          3.23149        1.64700       -3.25852
O          3.03787        0.92618       -1.07626
H          0.66462       -0.49661        0.89064
H          0.48221       -0.23728       -0.84872
H          0.73412        1.14207        0.21190
H          2.96809        0.27293        0.84898
H          4.12202       -1.45275       -0.30370
H          1.57819       -2.58993        0.22098
H          1.66609       -2.01420       -2.01640
H          3.24321       -2.77759       -2.11514
H          2.86849       -0.96556       -3.87440
H          4.93224       -0.25599       -2.07192
H          1.57948        0.70744       -2.53393
H          4.11705        1.32145       -3.50248
22 22 22 22 22 22 22 22 22 22 22 22 22 22 22 22 22 22 22 22 22 22 22 22 22 22 22 22 22 22 22 22 22 22 22 22 22 22 22 22 22 22 22 22 22 22 22 22 22 22 22 22 22 22 22 22 22 22 22 22 22
CC1(C(O)CC(O)C(O)O1)
InChI=1S/C6H12O4/c1-3-4(7)2-5(8)6(9)10-3/h3-9H,2H2,1H3/t3-,4+,5-,6+/m1/s1
