15
metacyc CPD-18635  -241.736721192 -241.736721192 -241.736721192 -241.736721192 -241.736721192 -241.736721192 -241.736721192 -241.736721192 -241.736721192 -241.736721192 -241.736721192 -241.736721192 -241.736721192 -241.736721192 -241.736721192
C          1.02999       -0.07578       -0.11092
C          0.24729       -0.96008        0.52588
C         -1.27811       -0.88132        0.48725
O         -1.77327        0.07821       -0.16289
O         -1.84345       -1.80226        1.14178
C          2.47874       -0.08783       -0.11287
O          3.09399       -0.64422        0.99125
C          3.18928        0.46830       -1.10074
C          4.66157        0.45989       -1.07483
H          5.14048       -0.00664       -0.19882
O          5.32160        0.94802       -1.98716
H          0.54669        0.70752       -0.69730
H          0.64322       -1.80629        1.07776
H          2.39404       -0.80899        1.65007
H          2.72665        0.92730       -1.96545
15 15 15 15 15 15 15 15 15 15 15 15 15 15 15 15 15 15 15 15 15 15 15 15 15 15 15 15 15 15 15 15 15 15 15 15 15 15 15 15
C(=CC(=O)[O-])C(O)=C[CH]=O
InChI=1S/C6H6O4/c7-4-3-5(8)1-2-6(9)10/h1-4,8H,(H,9,10)/p-1/b2-1-,5-3+
