17
metacyc CPD-7737  -724.68449 -724.68449 -724.68449 -724.68449 -724.68449 -724.68449 -724.68449 -724.68449 -724.68449 -724.68449 -724.68449 -724.68449 -724.68449 -724.68449 -724.68449
C          0.54103       -0.73171       -0.27111
C          0.22924       -0.31648        1.16119
C          1.17394       -0.72102        2.28565
O          1.23017       -2.16839        2.41318
C          0.71429       -2.55903        3.59938
C          0.27228       -1.39049        4.35480
C          0.53339       -0.32955        3.60016
O          0.56310       -3.70790        3.99257
C          2.60835       -0.05357        2.35766
O          2.68399        1.13997        1.91895
O          3.48848       -0.67435        3.03946
O         -0.32987       -0.33444       -1.11239
O          1.54411       -1.45928       -0.48599
H         -0.77075       -0.72691        1.36529
H          0.12429        0.77744        1.14718
H         -0.15622       -1.43977        5.33547
H          0.36568        0.70162        3.87220
17 17 17 17 17 17 17 17 17 17 17 17 17 17 17 17 17 17 17 17 17 17 17 17 17 17 17 17 17 17 17 17 17 17 17 17 17 17 17 17 17 17 17 17 17 17
C(CC1(OC(C=C1)=O)C([O-])=O)([O-])=O
InChI=1S/C7H6O6/c8-4(9)3-7(6(11)12)2-1-5(10)13-7/h1-2H,3H2,(H,8,9)(H,11,12)/p-2/t7-/m0/s1
