24
metacyc CPD-17549  -13.764267976 -13.764267976 -13.764267976 -13.764267976 -13.764267976 -13.764267976 -13.764267976 -13.764267976 -13.764267976 -13.764267976 -13.764267976 -13.764267976 -13.764267976 -13.764267976 -13.764267976
C          2.09988        0.06510       -1.68352
O          1.44435        1.03139       -2.19785
O          2.55426       -0.95474       -2.30125
C          2.39330        0.09876       -0.17903
O          1.99992        1.07043        0.47184
C          3.18518       -1.03241        0.44585
C          4.70444       -0.82950        0.30718
C          5.16829        0.38616        1.06319
C          6.02010        0.37097        2.09289
C          6.63825       -0.85794        2.65559
O          8.05353       -0.69630        2.57759
C          6.24159       -2.18067        1.99833
C          5.47769       -2.11826        0.66542
H          2.87053       -1.96722       -0.03191
H          2.89135       -1.11410        1.49935
H          4.91035       -0.62816       -0.75363
H          4.76174        1.34479        0.73761
H          6.27642        1.31121        2.57495
H          6.39889       -0.91280        3.72285
H          8.24735       -0.48302        1.64916
H          5.61540       -2.73261        2.71069
H          7.13086       -2.80587        1.84853
H          4.80466       -2.98547        0.62569
H          6.20306       -2.30117       -0.13802
24 24 24 24 24 24 24 24 24 24 24 24 24 24 24 24 24 24 24 24 24 24 24 24 24 24 24 24 24 24 24 24 24 24 24 24 24 24 24 24 24 24 24 24 24 24 24 24 24 24 24 24 24 24 24 24 24 24 24 24 24 24 24 24 24 24 24
C(=O)([O-])C(=O)CC1(C=CC(O)CC1)
InChI=1S/C9H12O4/c10-7-3-1-6(2-4-7)5-8(11)9(12)13/h1,3,6-7,10H,2,4-5H2,(H,12,13)/p-1/t6-,7-/m0/s1
