14
metacyc CPD-19247  -234.36818256 -234.36818256 -234.36818256 -234.36818256 -234.36818256 -234.36818256 -234.36818256 -234.36818256 -234.36818256 -234.36818256 -234.36818256 -234.36818256 -234.36818256 -234.36818256 -234.36818256
C          3.32447       -0.17427        1.17482
C          2.42787        0.04804       -0.01310
N          3.09413        0.26524       -1.18199
C          2.44703        0.50645       -2.47493
C          3.46280        0.72265       -3.62713
O          4.68051        0.65731       -3.26963
O          2.96315        0.93462       -4.76640
O          1.20455        0.02821        0.09813
H          4.38266       -0.12491        0.90426
H          3.11844       -1.16196        1.59624
H          3.12027        0.59586        1.92395
H          4.11044        0.27901       -1.25389
H          1.80993        1.39083       -2.37114
H          1.81157       -0.35676       -2.69782
14 14 14 14 14 14 14 14 14 14 14 14 14 14 14 14 14 14 14 14 14 14 14 14 14 14 14 14 14 14 14 14 14 14 14 14 14
CC(NCC(=O)[O-])=O
InChI=1S/C4H7NO3/c1-3(6)5-2-4(7)8/h2H2,1H3,(H,5,6)(H,7,8)/p-1
