15
metacyc CPD-14136  -461.47377792 -461.47377792 -461.47377792 -461.47377792 -461.47377792 -461.47377792 -461.47377792 -461.47377792 -461.47377792 -461.47377792 -461.47377792 -461.47377792 -461.47377792 -461.47377792 -461.47377792
C          1.01655        0.02915        0.23876
O          0.43275        1.16154        0.26899
O          0.42737       -1.09651        0.32388
C          2.51258        0.02398        0.09125
C          3.26009        1.19924       -0.00420
C          4.64884        1.13963       -0.14993
C          5.29827       -0.09983       -0.20103
C          6.83901       -0.12049       -0.37712
O          7.43386        1.01067       -0.47420
O          7.44378       -1.24468       -0.41833
N          4.57792       -1.26186       -0.10152
C          3.22612       -1.16572        0.03963
H          2.75598        2.16134        0.03246
H          5.22785        2.05496       -0.22703
H          2.71044       -2.12016        0.11128
15 15 15 15 15 15 15 15 15 15 15 15 15 15 15 15 15 15 15 15 15 15 15 15 15 15 15 15 15 15 15 15 15 15 15 15 15 15 15 15
C([O-])(=O)C1(C=CC(C([O-])=O)=NC=1)
InChI=1S/C7H5NO4/c9-6(10)4-1-2-5(7(11)12)8-3-4/h1-3H,(H,9,10)(H,11,12)/p-2
