17
metacyc CPD-580  -141.641353664 -141.641353664 -141.641353664 -141.641353664 -141.641353664 -141.641353664 -141.641353664 -141.641353664 -141.641353664 -141.641353664 -141.641353664 -141.641353664 -141.641353664 -141.641353664 -141.641353664
C          3.73561        1.16852        0.18248
C          2.90454        0.54580       -0.90845
N          3.04566       -0.80781       -1.00834
C          2.40512       -1.64739       -1.99882
C          3.42062       -2.38132       -2.85701
C          4.29967       -3.34183       -2.05519
O          4.58107       -2.98119       -0.87343
O          4.66396       -4.37544       -2.68319
O          2.16320        1.22632       -1.61283
H          4.31762        0.42196        0.73152
H          3.07022        1.67400        0.88895
H          4.42344        1.89233       -0.25917
H          3.76426       -1.31253       -0.47785
H          1.74945       -1.03880       -2.62999
H          1.78156       -2.36120       -1.44968
H          4.07927       -1.66848       -3.36675
H          2.88638       -2.94924       -3.62789
17 17 17 17 17 17 17 17 17 17 17 17 17 17 17 17 17 17 17 17 17 17 17 17 17 17 17 17 17 17 17 17 17 17 17 17 17 17 17 17 17 17 17 17 17 17
CC(NCCC([O-])=O)=O
InChI=1S/C5H9NO3/c1-4(7)6-3-2-5(8)9/h2-3H2,1H3,(H,6,7)(H,8,9)/p-1
