25
metacyc CPD-2022  -44.628087896 -44.628087896 -44.628087896 -44.628087896 -44.628087896 -44.628087896 -44.628087896 -44.628087896 -44.628087896 -44.628087896 -44.628087896 -44.628087896 -44.628087896 -44.628087896 -44.628087896
C          0.89923       -0.28308       -0.21934
C          2.40762       -0.09689       -0.14365
C          2.98996       -0.84709        1.06170
C          4.53157       -0.78035        1.13928
C          4.91534        0.75525        1.28875
O          4.34196        1.44129        2.19731
O          5.65722        1.22283        0.35622
N          5.07295       -1.71222        2.20697
C          4.81372       -3.18578        1.98232
C          5.46362       -3.67726        0.68462
C          5.25290       -4.18275        3.13685
O          4.34754       -4.48765        3.98603
O          6.40034       -4.73656        3.04442
H          0.49113        0.26493       -1.07375
H          0.41466        0.08894        0.68898
H          0.64016       -1.34015       -0.33807
H          2.62684        0.97354       -0.07990
H          2.86147       -0.47038       -1.06905
H          2.66300       -1.88708        0.96831
H          2.54218       -0.46926        1.98870
H          4.93718       -1.07667        0.16289
H          3.73595       -3.36926        1.89366
H          6.52503       -3.40922        0.63696
H          4.97148       -3.24772       -0.19456
H          5.38337       -4.76585        0.58522
25 25 25 25 25 25 25 25 25 25 25 25 25 25 25 25 25 25 25 25 25 25 25 25 25 25 25 25 25 25 25 25 25 25 25 25 25 25 25 25 25 25 25 25 25 25 25 25 25 25 25 25 25 25 25 25 25 25 25 25 25 25 25 25 25 25 25 25 25 25
CCCC(C(=O)[O-])[N+]C(C)C([O-])=O
InChI=1S/C8H15NO4/c1-3-4-6(8(12)13)9-5(2)7(10)11/h5-6,9H,3-4H2,1-2H3,(H,10,11)(H,12,13)/p-1
