20
metacyc CPD-784  -801.4575428 -801.4575428 -801.4575428 -801.4575428 -801.4575428 -801.4575428 -801.4575428 -801.4575428 -801.4575428 -801.4575428 -801.4575428 -801.4575428 -801.4575428 -801.4575428 -801.4575428
C          0.96412       -0.16823       -0.62761
O          0.24873        0.86446       -0.81855
O          0.63747       -1.36777       -0.90003
C          2.39790        0.04938       -0.15996
C          2.86220        0.44493        1.24471
C          2.15552        0.75416        2.36457
C          0.71177        0.78964        2.47407
C         -0.13871        1.08155        3.47976
C          0.17176        1.50460        4.98755
O         -0.76059        1.25239        5.82140
O          1.26363        2.10119        5.21352
O         -1.52161        1.02252        3.16799
C          4.43419        0.47573        1.35351
O          5.06443        0.66001        0.26413
O          4.94224        0.28108        2.49798
H          2.79573        0.80208       -0.85521
H          2.92666       -0.88527       -0.40076
H          2.69671        1.01767        3.27598
H          0.23620        0.52474        1.54041
H         -1.57911        0.81279        2.21949
20 20 20 20 20 20 20 20 20 20 20 20 20 20 20 20 20 20 20 20 20 20 20 20 20 20 20 20 20 20 20 20 20 20 20 20 20 20 20 20 20 20 20 20 20 20 20 20 20 20 20 20 20 20 20
C([O-])(=O)CC(=CC=C(C([O-])=O)O)C([O-])=O
InChI=1S/C8H8O7/c9-5(8(14)15)2-1-4(7(12)13)3-6(10)11/h1-2,9H,3H2,(H,10,11)(H,12,13)(H,14,15)/p-3/b4-1+,5-2-
