20
metacyc CPD-18915  -102.78652888 -102.78652888 -102.78652888 -102.78652888 -102.78652888 -102.78652888 -102.78652888 -102.78652888 -102.78652888 -102.78652888 -102.78652888 -102.78652888 -102.78652888 -102.78652888 -102.78652888
C          1.17467        0.16781       -0.06724
C          0.50637        1.24382       -0.98326
N          0.79312        1.25694       -2.45137
C          0.29916        0.06877       -3.19509
C          0.41057       -0.03789       -4.75385
O          0.88108        0.91335       -5.44911
O         -0.05573       -1.13583       -5.23718
N          2.63054        0.21525        0.22960
C          3.14664        1.47451        0.82571
C          3.03027        1.85501        2.33060
O          3.13037        0.94107        3.21598
O          2.99763        3.11194        2.57989
H          0.93238       -0.82031       -0.48252
H          0.63610        0.19975        0.89159
H          0.72860        2.23465       -0.56569
H         -0.58045        1.13162       -0.83994
H         -0.76577       -0.09019       -2.97464
H          0.82349       -0.82090       -2.81952
H          2.81115        2.33634        0.23359
H          4.23622        1.46015        0.66259
20 20 20 20 20 20 20 20 20 20 20 20 20 20 20 20 20 20 20 20 20 20 20 20 20 20 20 20 20 20 20 20 20 20 20 20 20 20 20 20 20 20 20 20 20 20 20 20 20 20 20 20 20 20 20
C(C[N+]CC([O-])=O)[N+]CC([O-])=O
InChI=1S/C6H12N2O4/c9-5(10)3-7-1-2-8-4-6(11)12/h7-8H,1-4H2,(H,9,10)(H,11,12)
