17
metacyc CPD-13085  -503.6550668 -503.6550668 -503.6550668 -503.6550668 -503.6550668 -503.6550668 -503.6550668 -503.6550668 -503.6550668 -503.6550668 -503.6550668 -503.6550668 -503.6550668 -503.6550668 -503.6550668
C          0.82008        0.05307        0.03238
O          0.27713        1.19116        0.04076
O          0.29573       -1.09264        0.01300
C          2.36538        0.04862        0.03170
C          3.00685        1.22384        0.04194
C          4.47310        1.29939       -0.00779
O          5.00442        2.41056       -0.06215
C          5.28646        0.01805       -0.02983
O          6.20953        0.02972       -1.11905
C          4.52315       -1.29493        0.01027
O          5.13401       -2.37322        0.01673
C          3.01129       -1.29525       -0.00021
H          2.47645        2.17203        0.05911
H          5.87891        0.03603        0.89443
H          5.68290        0.07353       -1.93560
H          2.69024       -1.87572        0.87292
H          2.70503       -1.82397       -0.91082
17 17 17 17 17 17 17 17 17 17 17 17 17 17 17 17 17 17 17 17 17 17 17 17 17 17 17 17 17 17 17 17 17 17 17 17 17 17 17 17 17 17 17 17 17 17
C([O-])(=O)C1(=CC(=O)C(O)C(=O)C1)
InChI=1S/C7H6O5/c8-4-1-3(7(11)12)2-5(9)6(4)10/h1,6,10H,2H2,(H,11,12)/p-1/t6-/m1/s1
