20
metacyc CPD-21225  -430.24243544 -430.24243544 -430.24243544 -430.24243544 -430.24243544 -430.24243544 -430.24243544 -430.24243544 -430.24243544 -430.24243544 -430.24243544 -430.24243544 -430.24243544 -430.24243544 -430.24243544
C          1.12442       -0.15079       -0.05058
C          2.62196       -0.32600       -0.10126
O          3.13600       -1.38724       -0.44732
N          3.26891        0.82155        0.28053
C          4.61427        1.04507        0.34967
C          5.14427        2.21999        0.73903
C          4.46632        3.51623        1.17377
C          2.97205        3.82702        1.25233
O          2.13646        2.91877        0.96113
O          2.68744        5.01071        1.61830
C          6.70721        2.27510        0.74716
O          7.30893        1.42922        0.01844
O          7.22743        3.16232        1.48629
H          0.62986       -1.07487       -0.35976
H          0.82169        0.65400       -0.72721
H          0.81418        0.09069        0.97040
H          2.67439        1.62328        0.54278
H          5.24284        0.20263        0.06455
H          4.87073        4.30250        0.51962
H          4.83201        3.73368        2.18732
20 20 20 20 20 20 20 20 20 20 20 20 20 20 20 20 20 20 20 20 20 20 20 20 20 20 20 20 20 20 20 20 20 20 20 20 20 20 20 20 20 20 20 20 20 20 20 20 20 20 20 20 20 20 20
CC(=O)NC=C(CC([O-])=O)C([O-])=O
InChI=1S/C7H9NO5/c1-4(9)8-3-5(7(12)13)2-6(10)11/h3H,2H2,1H3,(H,8,9)(H,10,11)(H,12,13)/p-2/b5-3+
