26
metacyc CPD-12811  -341.59983488 -341.59983488 -341.59983488 -341.59983488 -341.59983488 -341.59983488 -341.59983488 -341.59983488 -341.59983488 -341.59983488 -341.59983488 -341.59983488 -341.59983488 -341.59983488 -341.59983488
C          1.00458        0.01923       -0.02351
C          0.45585       -1.06722        0.92239
C          0.93892       -0.87163        2.38974
C          0.43082       -1.96564        3.37676
C          0.92953       -1.78323        4.83389
C          0.35415       -2.86012        5.77024
O          0.83998       -2.65164        7.09798
O          2.35699       -1.83590        4.95260
O         -0.99643       -2.02591        3.39273
O          2.37017       -0.79120        2.39239
O         -0.96561       -1.08540        0.80986
O          2.42359        0.01834       -0.10364
H          0.67070        1.01328        0.29466
H          0.60955       -0.13325       -1.03337
H          0.82956       -2.03599        0.56948
H          0.55777        0.09692        2.74107
H          0.79855       -2.93374        3.01462
H          0.61912       -0.80086        5.21012
H          0.68361       -3.85766        5.45960
H         -0.73701       -2.84033        5.80213
H          1.76899       -2.36372        7.00631
H          2.66254       -2.68955        4.60092
H         -1.34485       -1.17410        3.70878
H          2.72051       -1.67337        2.16145
H         -1.32080       -0.25659        1.17626
H          2.75635        0.11861        0.81285
26 26 26 26 26 26 26 26 26 26 26 26 26 26 26 26 26 26 26 26 26 26 26 26 26 26 26 26 26 26 26 26 26 26 26 26 26 26 26 26 26 26 26 26 26 26 26 26 26 26 26 26 26 26 26 26 26 26 26 26 26 26 26 26 26 26 26 26 26 26 26 26 26
C(C(C(C(C(CO)O)O)O)O)O
InChI=1S/C6H14O6/c7-1-3(9)5(11)6(12)4(10)2-8/h3-12H,1-2H2/t3-,4-,5-,6+/m1/s1
