18
metacyc CPD-122  -68.342363928 -68.342363928 -68.342363928 -68.342363928 -68.342363928 -68.342363928 -68.342363928 -68.342363928 -68.342363928 -68.342363928 -68.342363928 -68.342363928 -68.342363928 -68.342363928 -68.342363928
C          0.90126       -0.72469       -1.97632
O          1.89044        0.07280       -1.87304
C          0.20746       -1.02541       -0.61009
C          0.54820       -2.40600       -0.09200
C          1.63691       -2.62013        0.76649
C          1.93344       -3.89849        1.24227
C          1.15041       -4.98403        0.85433
C          0.07722       -4.79173       -0.01459
C         -0.21711       -3.51203       -0.48959
O          0.61793       -0.02059        0.35949
O          0.36294       -1.21343       -3.00968
H         -0.87733       -0.91708       -0.72111
H          2.25857       -1.77790        1.06459
H          2.77887       -4.03937        1.90841
H          1.38312       -5.97902        1.22336
H         -0.52374       -5.63728       -0.33559
H         -1.04059       -3.37227       -1.18684
H          1.31406        0.45943       -0.15250
18 18 18 18 18 18 18 18 18 18 18 18 18 18 18 18 18 18 18 18 18 18 18 18 18 18 18 18 18 18 18 18 18 18 18 18 18 18 18 18 18 18 18 18 18 18 18 18 18
C(=O)(C(C1(C=CC=CC=1))O)[O-]
InChI=1S/C8H8O3/c9-7(8(10)11)6-4-2-1-3-5-6/h1-5,7,9H,(H,10,11)/p-1/t7-/m0/s1
