18
metacyc CPD-45  -632.36427896 -632.36427896 -632.36427896 -632.36427896 -632.36427896 -632.36427896 -632.36427896 -632.36427896 -632.36427896 -632.36427896 -632.36427896 -632.36427896 -632.36427896 -632.36427896 -632.36427896
C          4.83062        0.68084       -1.53322
O          5.35755        1.77282       -1.56034
O          3.58006        0.41257       -1.10610
C          3.39386       -0.93359       -1.03394
O          2.37013       -1.44617       -0.63945
C          4.65530       -1.55932       -1.44555
C          5.06216       -2.95065       -1.41113
O          4.60032       -3.54732       -2.41382
C          6.17990       -3.12168       -0.67837
C          7.43625       -3.04987       -1.51770
O          8.29802       -3.92600       -1.50573
C          7.72364       -1.68148       -2.14587
O          9.05530       -1.38364       -2.43386
C          6.85279       -0.67757       -2.30523
C          5.49846       -0.58658       -1.82977
H          6.36624       -2.51710        0.19728
H          9.53979       -1.69296       -1.64231
H          7.22131        0.22791       -2.78705
18 18 18 18 18 18 18 18 18 18 18 18 18 18 18 18 18 18 18 18 18 18 18 18 18 18 18 18 18 18 18 18 18 18 18 18 18 18 18 18 18 18 18 18 18 18 18 18 18
C1(=O)(OC(=O)C2(C([O-])=CC(=O)C(O)=CC1=2))
InChI=1S/C9H4O6/c10-4-1-3-7(6(12)2-5(4)11)9(14)15-8(3)13/h1-2,12H,(H,10,11)/p-1
