18
metacyc CPD-17566  -718.43388688 -718.43388688 -718.43388688 -718.43388688 -718.43388688 -718.43388688 -718.43388688 -718.43388688 -718.43388688 -718.43388688 -718.43388688 -718.43388688 -718.43388688 -718.43388688 -718.43388688
C         -0.61090        1.20682       -0.00060
C          0.80009        1.16719       -0.01055
N          1.44739        2.48215       -0.01355
O          1.27842        3.18533        0.99889
O          1.93652        2.88468       -1.08159
C          1.57423       -0.02399       -0.00384
C          0.77390       -1.19961        0.00203
C         -0.63711       -1.20609        0.00167
C         -1.31643        0.00806        0.00162
N         -2.78194        0.02390       -0.00033
O         -3.35037        1.12589       -0.02463
O         -3.37343       -1.06584        0.02449
N          1.39361       -2.52803       -0.01540
O          1.88781       -2.95386        1.04015
O          1.19409       -3.21446       -1.03343
O          2.85183       -0.03875       -0.00340
H         -1.12183        2.16670        0.00125
H         -1.16941       -2.15500       -0.00247
18 18 18 18 18 18 18 18 18 18 18 18 18 18 18 18 18 18 18 18 18 18 18 18 18 18 18 18 18 18 18 18 18 18 18 18 18 18 18 18 18 18 18 18 18 18 18 18 18
C1(=C([N+]([O-])=O)C(=C(C=C1[N+](=O)[O-])[N+](=O)[O-])[O-])
InChI=1S/C6H3N3O7/c10-6-4(8(13)14)1-3(7(11)12)2-5(6)9(15)16/h1-2,10H/p-1
