29
metacyc CPD-15696  -93.44206696 -93.44206696 -93.44206696 -93.44206696 -93.44206696 -93.44206696 -93.44206696 -93.44206696 -93.44206696 -93.44206696 -93.44206696 -93.44206696 -93.44206696 -93.44206696 -93.44206696
C          0.88706        0.01396        0.15882
C          2.40438       -0.05387       -0.04126
C          2.91934       -1.45107       -0.42370
O          2.42487       -2.44076        0.47915
C          2.57612       -1.78403       -1.88968
C          3.05027       -0.66637       -2.84214
C          2.48081        0.67865       -2.32709
O          2.94026        1.76560       -3.11114
O          2.85628        0.93163       -0.97842
N          4.52360       -0.62583       -2.93787
C          5.34687       -1.30663       -3.78409
C          4.77763       -2.16063       -4.88320
O          6.56223       -1.18992       -3.62697
O          3.11158       -3.06158       -2.25132
H          0.57031       -0.62639        0.98814
H          0.33639       -0.29461       -0.73083
H          0.58205        1.04419        0.37995
H          2.85221        0.21418        0.92394
H          4.01113       -1.46216       -0.31500
H          1.71809       -2.94514        0.03820
H          1.49018       -1.89464       -1.98810
H          2.67248       -0.84499       -3.85400
H          1.38997        0.67843       -2.41249
H          3.89126        1.83275       -2.92044
H          5.03270       -0.11166       -2.22485
H          3.73618       -2.43732       -4.72436
H          5.35339       -3.09065       -4.93826
H          4.86380       -1.62676       -5.83328
H          4.04572       -3.08352       -1.96822
29 29 29 29 29 29 29 29 29 29 29 29 29 29 29 29 29 29 29 29 29 29 29 29 29 29 29 29 29 29 29 29 29 29 29 29 29 29 29 29 29 29 29 29 29 29 29 29 29 29 29 29 29 29 29 29 29 29 29 29 29 29 29 29 29 29 29 29 29 29 29 29 29 29 29 29 29 29 29 29 29 29
CC1(C(O)C(C(C(O)O1)NC(C)=O)O)
InChI=1S/C8H15NO5/c1-3-6(11)7(12)5(8(13)14-3)9-4(2)10/h3,5-8,11-13H,1-2H3,(H,9,10)/t3-,5-,6+,7-,8+/m1/s1
