16
metacyc CPD-1789  -539.58232168 -539.58232168 -539.58232168 -539.58232168 -539.58232168 -539.58232168 -539.58232168 -539.58232168 -539.58232168 -539.58232168 -539.58232168 -539.58232168 -539.58232168 -539.58232168 -539.58232168
C          1.09233        0.12072       -0.19611
O          0.64341        1.27072        0.51937
C          2.60144       -0.06128       -0.02017
C          3.15902       -1.23793       -0.72599
O          2.80025       -2.53620       -0.46639
C          4.06779       -0.87643       -1.62583
O          4.79100       -1.70400       -2.43393
C          4.15776        0.59334       -1.58200
O          4.87851        1.30161       -2.25957
O          3.27604        1.05166       -0.63801
H          0.81713        0.25573       -1.24738
H          0.54858       -0.74340        0.19833
H          1.12828        2.03670        0.15642
H          2.87259       -0.05979        1.04116
H          2.15481       -2.56022        0.26421
H          4.51081       -2.61093       -2.20821
16 16 16 16 16 16 16 16 16 16 16 16 16 16 16 16 16 16 16 16 16 16 16 16 16 16 16 16 16 16 16 16 16 16 16 16 16 16 16 16 16 16 16
C(O)C1(C(O)=C(O)C(=O)O1)
InChI=1S/C5H6O5/c6-1-2-3(7)4(8)5(9)10-2/h2,6-8H,1H2/t2-/m1/s1
