29
metacyc CPD-15599  -93.44206696 -93.44206696 -93.44206696 -93.44206696 -93.44206696 -93.44206696 -93.44206696 -93.44206696 -93.44206696 -93.44206696 -93.44206696 -93.44206696 -93.44206696 -93.44206696 -93.44206696
C          1.07469        0.14869        0.12544
C          2.58650       -0.01966       -0.05446
C          3.00568       -1.46046       -0.41102
O          2.41955       -2.38275        0.50865
C          2.66079       -1.76725       -1.88754
N          3.11663       -3.09861       -2.29324
C          2.37431       -4.21820       -2.00771
O          1.29312       -4.15523       -1.42858
C          2.97025       -5.51463       -2.47984
C          3.23550       -0.68291       -2.80812
O          4.68153       -0.70690       -2.76830
C          2.73706        0.69744       -2.34718
O          3.32176        1.71275       -3.15113
O          3.12171        0.92567       -0.99367
H          0.70454       -0.46732        0.95106
H          0.51551       -0.13079       -0.77237
H          0.83001        1.19432        0.33760
H          3.03749        0.22820        0.91449
H          4.09298       -1.54409       -0.28459
H          1.77000       -2.93836        0.02807
H          1.56916       -1.77238       -1.99715
H          4.08389       -3.19382       -2.58590
H          4.03230       -5.40889       -2.70889
H          2.43795       -5.84541       -3.37794
H          2.85839       -6.26436       -1.69128
H          2.95632       -0.86374       -3.85171
H          4.95435       -0.19583       -1.97893
H          1.65205        0.78661       -2.45394
H          4.20493        1.39139       -3.40489
29 29 29 29 29 29 29 29 29 29 29 29 29 29 29 29 29 29 29 29 29 29 29 29 29 29 29 29 29 29 29 29 29 29 29 29 29 29 29 29 29 29 29 29 29 29 29 29 29 29 29 29 29 29 29 29 29 29 29 29 29 29 29 29 29 29 29 29 29 29 29 29 29 29 29 29 29 29 29 29 29 29
CC1(C(O)C(NC(=O)C)C(O)C(O)O1)
InChI=1S/C8H15NO5/c1-3-6(11)5(9-4(2)10)7(12)8(13)14-3/h3,5-8,11-13H,1-2H3,(H,9,10)/t3-,5+,6-,7-,8+/m1/s1
