17
metacyc CPD-16877  -154.98830948 -154.98830948 -154.98830948 -154.98830948 -154.98830948 -154.98830948 -154.98830948 -154.98830948 -154.98830948 -154.98830948 -154.98830948 -154.98830948 -154.98830948 -154.98830948 -154.98830948
C          1.08594        0.00973       -0.04004
C          0.50319        1.35459       -0.46086
C         -1.01538        1.42738       -0.48363
N         -1.72001        0.31759       -0.13616
O         -1.61527        2.45243       -0.80450
C          2.60924       -0.00011       -0.03695
C          3.19905       -1.35145        0.38577
O          2.37185       -2.26181        0.67054
O          4.46190       -1.38457        0.39613
H          0.72412       -0.77179       -0.72034
H          0.72412       -0.24464        0.96439
H          0.85266        1.60678       -1.46897
H          0.85268        2.13644        0.22367
H         -1.28640       -0.55601        0.13700
H         -2.72765        0.36820       -0.15211
H          2.98615        0.76625        0.65087
H          2.98617        0.23767       -1.03887
17 17 17 17 17 17 17 17 17 17 17 17 17 17 17 17 17 17 17 17 17 17 17 17 17 17 17 17 17 17 17 17 17 17 17 17 17 17 17 17 17 17 17 17 17 17
C(CC(N)=O)CC(=O)[O-]
InChI=1S/C5H9NO3/c6-4(7)2-1-3-5(8)9/h1-3H2,(H2,6,7)(H,8,9)/p-1
