22
metacyc CPD-327  -456.092835936 -456.092835936 -456.092835936 -456.092835936 -456.092835936 -456.092835936 -456.092835936 -456.092835936 -456.092835936 -456.092835936 -456.092835936 -456.092835936 -456.092835936 -456.092835936 -456.092835936
C          1.00686        0.02074        0.11785
O          0.54244       -0.85884        1.13356
C          2.53610       -0.05681       -0.04052
O          3.01506       -1.37433       -0.37266
C          2.65289       -1.83883       -1.66676
C          3.13915       -0.85243       -2.74030
C          2.68950        0.58649       -2.50220
C          3.07444        0.95769       -1.06279
O          4.51217        1.02257       -0.97962
O          3.24605        1.52588       -3.40824
O          3.85211       -1.19856       -3.68254
O          3.21057       -3.12546       -1.85717
H          0.69668        1.03726        0.38031
H          0.48551       -0.26066       -0.80006
H          0.91869       -0.57489        1.98507
H          2.98812        0.15509        0.93596
H          1.56827       -1.94478       -1.74937
H          1.60416        0.61668       -2.63886
H          2.71651        1.96689       -0.83354
H          4.84481        0.15678       -0.66946
H          4.20908        1.53429       -3.23735
H          4.03083       -2.99684       -2.36872
22 22 22 22 22 22 22 22 22 22 22 22 22 22 22 22 22 22 22 22 22 22 22 22 22 22 22 22 22 22 22 22 22 22 22 22 22 22 22 22 22 22 22 22 22 22 22 22 22 22 22 22 22 22 22 22 22 22 22 22 22
C(O)C1(OC(C(C(C1O)O)=O)O)
InChI=1S/C6H10O6/c7-1-2-3(8)4(9)5(10)6(11)12-2/h2-4,6-9,11H,1H2/t2-,3-,4+,6-/m1/s1
