17
metacyc CPD-16726  -234.40142444 -234.40142444 -234.40142444 -234.40142444 -234.40142444 -234.40142444 -234.40142444 -234.40142444 -234.40142444 -234.40142444 -234.40142444 -234.40142444 -234.40142444 -234.40142444 -234.40142444
C          2.02413       -1.03295       -0.13236
O          2.15858        0.28940        0.40074
C          1.29256        1.25601       -0.19347
O          1.68041        1.52164       -1.53106
C         -0.12417        0.79963       -0.12325
C         -1.27515        1.45217       -0.03536
C         -2.30011        0.40283        0.01719
O         -3.49649        0.63315        0.08282
O         -1.73547       -0.85015       -0.03009
C         -0.38684       -0.59287       -0.08862
C          0.59642       -1.49438       -0.11209
H          2.63083       -1.69344        0.49456
H          2.43004       -1.07028       -1.14923
H          1.41565        2.18490        0.37221
H          1.20864        0.89652       -2.10150
H         -1.47791        2.50698       -0.01518
H          0.38394       -2.55753       -0.10474
17 17 17 17 17 17 17 17 17 17 17 17 17 17 17 17 17 17 17 17 17 17 17 17 17 17 17 17 17 17 17 17 17 17 17 17 17 17 17 17 17 17 17 17 17 17
C1(OC(O)C2(=CC(=O)OC(=C1)2))
InChI=1S/C7H6O4/c8-6-3-4-5(11-6)1-2-10-7(4)9/h1,3,7,9H,2H2
