21
metacyc CPD-13430  -167.229425728 -167.229425728 -167.229425728 -167.229425728 -167.229425728 -167.229425728 -167.229425728 -167.229425728 -167.229425728 -167.229425728 -167.229425728 -167.229425728 -167.229425728 -167.229425728 -167.229425728
C         -1.50173        0.51244       -1.14349
O         -1.61968       -0.29082        0.05695
C         -0.42099       -0.00489        0.83662
H         -0.62564       -0.21505        1.88979
C         -0.17997        1.48477        0.55050
C         -0.25604        1.40136       -0.96231
H         -0.40470        2.35998       -1.46569
O          0.91794        0.78637       -1.52187
C          1.61639       -0.11997       -0.66610
C          0.65853       -0.93361        0.21980
O          1.40210       -1.63164        1.22653
O          2.55732        0.56013        0.16858
O         -1.22016        2.31168        1.07588
H         -2.41907        1.10629       -1.21368
H         -1.43134       -0.16146       -2.00260
H          0.76748        1.86559        0.93801
H          2.21468       -0.79089       -1.28984
H          0.16494       -1.68665       -0.40953
H          1.66120       -2.48987        0.82642
H          2.58582        0.05118        0.99966
H         -1.13236        3.19414        0.67407
21 21 21 21 21 21 21 21 21 21 21 21 21 21 21 21 21 21 21 21 21 21 21 21 21 21 21 21 21 21 21 21 21 21 21 21 21 21 21 21 21 21 21 21 21 21 21 21 21 21 21 21 21 21 21 21 21 21
C1(O[CH]2(C([CH]1OC(C(O)2)O)O))
InChI=1S/C6H10O5/c7-3-2-1-10-5(3)4(8)6(9)11-2/h2-9H,1H2/t2-,3-,4+,5+,6-/m1/s1
