15
metacyc CPD-18015  -202.059075152 -202.059075152 -202.059075152 -202.059075152 -202.059075152 -202.059075152 -202.059075152 -202.059075152 -202.059075152 -202.059075152 -202.059075152 -202.059075152 -202.059075152 -202.059075152 -202.059075152
C          0.78095        1.19180       -0.20433
C         -0.67378        1.28842        0.21844
O         -1.26227        2.45245       -0.34813
C         -1.36685        0.00262       -0.22491
N         -0.65977       -1.15487       -0.04357
C          0.69559       -1.24108        0.08655
O          1.27862       -2.31832        0.09916
N          1.37433       -0.06706        0.18117
O         -2.48700        0.00764       -0.73251
H          1.37065        2.00165        0.23768
H          0.87151        1.28370       -1.29383
H         -0.76286        1.35254        1.30941
H         -1.97138        2.14416       -0.94853
H         -1.12596       -2.01868       -0.27381
H          2.38148       -0.17097        0.14563
15 15 15 15 15 15 15 15 15 15 15 15 15 15 15 15 15 15 15 15 15 15 15 15 15 15 15 15 15 15 15 15 15 15 15 15 15 15 15 15
C1(C(O)C(NC(=O)N1)=O)
InChI=1S/C4H6N2O3/c7-2-1-5-4(9)6-3(2)8/h2,7H,1H2,(H2,5,6,8,9)
