17
metacyc CPD-11573  -51.802279728 -51.802279728 -51.802279728 -51.802279728 -51.802279728 -51.802279728 -51.802279728 -51.802279728 -51.802279728 -51.802279728 -51.802279728 -51.802279728 -51.802279728 -51.802279728 -51.802279728
C          0.95018        0.16569       -0.03249
O          0.59826        0.86001        1.15717
C          2.41819       -0.02832       -0.03022
O          3.18500        1.10296       -0.00824
C          4.48993        0.70074       -0.03219
C          5.51617        1.76760       -0.02862
O          5.82297        2.06901        1.32610
C          4.55977       -0.67591       -0.04798
C          3.22526       -1.14557       -0.04812
H          0.63177        0.75694       -0.89644
H          0.41902       -0.79073       -0.04606
H          1.21283        1.61309        1.21705
H          5.15906        2.67555       -0.52295
H          6.43189        1.43614       -0.52702
H          4.97468        2.26686        1.76028
H          5.46624       -1.26558       -0.05696
H          2.88903       -2.17335       -0.05980
17 17 17 17 17 17 17 17 17 17 17 17 17 17 17 17 17 17 17 17 17 17 17 17 17 17 17 17 17 17 17 17 17 17 17 17 17 17 17 17 17 17 17 17 17 17
C(O)C1(OC(CO)=CC=1)
InChI=1S/C6H8O3/c7-3-5-1-2-6(4-8)9-5/h1-2,7-8H,3-4H2
