22
metacyc CPD-20751  -108.05832704 -108.05832704 -108.05832704 -108.05832704 -108.05832704 -108.05832704 -108.05832704 -108.05832704 -108.05832704 -108.05832704 -108.05832704 -108.05832704 -108.05832704 -108.05832704 -108.05832704
C          0.78117        0.16550        0.02360
N          0.20098       -0.77359        0.98751
C          2.32235        0.10342       -0.02047
O          2.80689        0.49495        1.27706
C          2.88219       -1.29172       -0.35649
C          2.60452       -1.70400       -1.79776
C          3.16063       -0.67072       -2.77108
N          2.73258        0.69297       -2.40562
C          2.74925        1.12764       -1.10200
O          2.93218        2.32272       -0.85999
C          4.70601       -0.75521       -3.03748
O          5.32520       -1.69903       -2.47850
O          5.13685        0.16224       -3.79762
H          0.46487        1.17297        0.32099
H          0.34007       -0.02856       -0.95903
H          3.06147       -0.31123        1.75422
H          2.47350       -2.04807        0.32464
H          3.96431       -1.29979       -0.17186
H          1.52321       -1.80440       -1.94834
H          3.03334       -2.69453       -1.98898
H          2.70604       -0.85949       -3.75340
H          3.14542        1.38840       -3.02479
22 22 22 22 22 22 22 22 22 22 22 22 22 22 22 22 22 22 22 22 22 22 22 22 22 22 22 22 22 22 22 22 22 22 22 22 22 22 22 22 22 22 22 22 22 22 22 22 22 22 22 22 22 22 22 22 22 22 22 22 22
C([N+])C1(O)(CCC(NC(=O)1)C(=O)[O-])
InChI=1S/C7H12N2O4/c8-3-7(13)2-1-4(5(10)11)9-6(7)12/h4,13H,1-3,8H2,(H,9,12)(H,10,11)/t4-,7-/m0/s1
