18
metacyc CPD-616  -34.81518952 -34.81518952 -34.81518952 -34.81518952 -34.81518952 -34.81518952 -34.81518952 -34.81518952 -34.81518952 -34.81518952 -34.81518952 -34.81518952 -34.81518952 -34.81518952 -34.81518952
C          0.89850       -0.01722        0.03184
C          2.39504        0.09193        0.03339
C          3.11268        1.29133        0.03313
C          4.51353        1.27892        0.03325
C          5.23229        0.09353        0.03430
C          4.52602       -1.10042        0.03492
C          3.13058       -1.10928        0.03433
O          5.16664       -2.30465        0.03596
O          5.19950        2.46331        0.03246
O          2.54107        2.53625        0.03280
H          0.38902        0.94796        0.03166
H          0.56440       -0.56079        0.92216
H          0.56626       -0.55999       -0.85969
H          6.31541        0.12324        0.03461
H          2.61457       -2.06766        0.03446
H          6.12481       -2.14158        0.03637
H          4.49792        3.14545        0.03092
H          1.57620        2.44775        0.04038
18 18 18 18 18 18 18 18 18 18 18 18 18 18 18 18 18 18 18 18 18 18 18 18 18 18 18 18 18 18 18 18 18 18 18 18 18 18 18 18 18 18 18 18 18 18 18 18 18
CC1(C(=C(C=C(C=1)O)O)O)
InChI=1S/C7H8O3/c1-4-2-5(8)3-6(9)7(4)10/h2-3,8-10H,1H3
