15
metacyc CPD-294  -546.61345 -546.61345 -546.61345 -546.61345 -546.61345 -546.61345 -546.61345 -546.61345 -546.61345 -546.61345 -546.61345 -546.61345 -546.61345 -546.61345 -546.61345
C          0.96182       -0.12321       -0.06973
C          0.09165        0.86167        0.20222
C         -1.41195        0.67887        0.02618
O         -1.80131       -0.42918       -0.43790
O         -2.09750        1.69420        0.34258
C          2.44726        0.08050       -0.00888
O          2.93243        1.04547        0.58543
C          3.27445       -0.84412       -0.86173
C          4.23905       -1.68942       -0.06200
O          3.82248       -2.16532        1.03022
O          5.34351       -1.91659       -0.64525
H          0.61871       -1.09060       -0.41552
H          0.44063        1.83428        0.53412
H          3.80910       -0.22632       -1.59210
H          2.63050       -1.52037       -1.43501
15 15 15 15 15 15 15 15 15 15 15 15 15 15 15 15 15 15 15 15 15 15 15 15 15 15 15 15 15 15 15 15 15 15 15 15 15 15 15 15
C(=CC(=O)[O-])C(=O)CC([O-])=O
InChI=1S/C6H6O5/c7-4(3-6(10)11)1-2-5(8)9/h1-2H,3H2,(H,8,9)(H,10,11)/p-2/b2-1-
