17
metacyc CPD-10656  -264.81171968 -264.81171968 -264.81171968 -264.81171968 -264.81171968 -264.81171968 -264.81171968 -264.81171968 -264.81171968 -264.81171968 -264.81171968 -264.81171968 -264.81171968 -264.81171968 -264.81171968
C          1.17133       -0.07826        0.08287
C          2.67825        0.04843        0.06107
C          3.30275        1.34642       -0.20193
C          2.67093        2.50897       -0.44637
C          3.33653        3.85809       -0.72874
O          4.59429        3.90214       -0.77144
O          2.50323        4.80072       -0.90142
C          3.36309       -1.09397        0.27720
C          4.84620       -1.47948        0.34960
O          5.68006       -0.58923        0.64777
O          5.04175       -2.72294        0.16721
H          0.62504        0.84669       -0.10310
H          0.83842       -0.44496        1.06136
H          0.84120       -0.79332       -0.68038
H          4.39465        1.36114       -0.19993
H          1.59050        2.58068       -0.46334
H          2.77166       -1.99969        0.43124
17 17 17 17 17 17 17 17 17 17 17 17 17 17 17 17 17 17 17 17 17 17 17 17 17 17 17 17 17 17 17 17 17 17 17 17 17 17 17 17 17 17 17 17 17 17
CC(C=CC([O-])=O)=CC([O-])=O
InChI=1S/C7H8O4/c1-5(4-7(10)11)2-3-6(8)9/h2-4H,1H3,(H,8,9)(H,10,11)/p-2/b3-2-,5-4-
