15
metacyc CPD-15016  -782.84213184 -782.84213184 -782.84213184 -782.84213184 -782.84213184 -782.84213184 -782.84213184 -782.84213184 -782.84213184 -782.84213184 -782.84213184 -782.84213184 -782.84213184 -782.84213184 -782.84213184
C          0.94353        0.16333       -0.02711
C          0.37775        1.42446        0.60253
O          1.04660        2.34289        1.08028
C         -1.15633        1.55782        0.69276
O         -1.83298        0.54744        0.31139
O         -1.64554        2.64928        1.14302
C          2.46263        0.16763       -0.14426
C          2.90547       -1.26508       -0.58574
O          3.16861       -1.35065       -1.83060
O          3.01173       -2.14003        0.31733
O          2.87919        1.10228       -1.17725
H          0.49554        0.06159       -1.02410
H          0.61491       -0.67925        0.59228
H          2.95735        0.44494        0.79219
H          3.09443        0.49153       -1.92215
15 15 15 15 15 15 15 15 15 15 15 15 15 15 15 15 15 15 15 15 15 15 15 15 15 15 15 15 15 15 15 15 15 15 15 15 15 15 15 15
C(C(=O)C([O-])=O)C(C([O-])=O)O
InChI=1S/C5H6O6/c6-2(4(8)9)1-3(7)5(10)11/h2,6H,1H2,(H,8,9)(H,10,11)/p-2/t2-/m0/s1
