22
metacyc CPD-14780  -474.08406104 -474.08406104 -474.08406104 -474.08406104 -474.08406104 -474.08406104 -474.08406104 -474.08406104 -474.08406104 -474.08406104 -474.08406104 -474.08406104 -474.08406104 -474.08406104 -474.08406104
C          0.86912        0.07963        0.10695
O          0.14127       -0.29539       -1.05377
C          2.38705        0.00064       -0.11377
O          2.73745       -1.35010       -0.49758
C          2.50669       -1.73661       -1.78532
C          2.98729       -0.77464       -2.86679
C          2.56987        0.66528       -2.53733
C          2.97378        1.01005       -1.10316
O          4.42151        0.93322       -1.03857
O          3.19899        1.58783       -3.44130
O          4.41501       -0.87508       -3.02228
O          2.03513       -2.84337       -2.01401
H          0.57022       -0.59508        0.91750
H          0.57308        1.09805        0.38432
H         -0.00717       -1.26256       -1.01147
H          2.86461        0.16701        0.86155
H          2.54628       -1.07038       -3.82049
H          1.49454        0.78366       -2.67640
H          2.69333        2.03844       -0.85267
H          4.68718        0.81273       -0.10838
H          4.16190        1.43163       -3.34921
H          4.81832       -0.52730       -2.19877
22 22 22 22 22 22 22 22 22 22 22 22 22 22 22 22 22 22 22 22 22 22 22 22 22 22 22 22 22 22 22 22 22 22 22 22 22 22 22 22 22 22 22 22 22 22 22 22 22 22 22 22 22 22 22 22 22 22 22 22 22
C(O)C1(OC(C(C(C1O)O)O)=O)
InChI=1S/C6H10O6/c7-1-2-3(8)4(9)5(10)6(11)12-2/h2-5,7-10H,1H2/t2-,3-,4+,5+/m1/s1
