18
metacyc CPD-15753  -440.8113868 -440.8113868 -440.8113868 -440.8113868 -440.8113868 -440.8113868 -440.8113868 -440.8113868 -440.8113868 -440.8113868 -440.8113868 -440.8113868 -440.8113868 -440.8113868 -440.8113868
C          3.15347        1.39814       -0.48577
O          3.48336        1.47909       -1.71039
O          3.27845        2.30190        0.40379
C          2.63410        0.04619        0.00086
O          1.62459       -0.38791       -0.56029
C          3.29710       -0.74127        1.07063
C          4.15356       -0.14350        2.00117
C          4.75943       -0.92749        2.98062
O          5.58369       -0.36692        3.91447
C          4.54054       -2.29809        3.04183
C          3.68948       -2.88700        2.11174
O          3.44632       -4.23032        2.12984
C          3.06091       -2.12171        1.13378
H          4.33409        0.92696        1.97073
H          5.60671        0.59210        3.74377
H          5.03445       -2.88123        3.81121
H          3.94767       -4.61807        2.86473
H          2.40097       -2.59493        0.41101
18 18 18 18 18 18 18 18 18 18 18 18 18 18 18 18 18 18 18 18 18 18 18 18 18 18 18 18 18 18 18 18 18 18 18 18 18 18 18 18 18 18 18 18 18 18 18 18 18
C([O-])(=O)C(=O)C1(C=C(O)C=C(O)C=1)
InChI=1S/C8H6O5/c9-5-1-4(2-6(10)3-5)7(11)8(12)13/h1-3,9-10H,(H,12,13)/p-1
