17
metacyc CPD-1070  -655.14645184 -655.14645184 -655.14645184 -655.14645184 -655.14645184 -655.14645184 -655.14645184 -655.14645184 -655.14645184 -655.14645184 -655.14645184 -655.14645184 -655.14645184 -655.14645184 -655.14645184
C          1.03995       -1.04027        2.23582
O          0.30092       -0.58994        1.32029
O          0.71424       -1.58079        3.33369
C          2.54411       -0.93412        2.02149
C          3.12904       -0.39912        0.93404
C          4.61791       -0.35761        0.85175
C          5.37477        0.21753       -0.31794
C          4.72980        0.81683       -1.52997
O          3.52734        0.92614       -1.74379
C          5.69303        1.34853       -2.61389
O          6.93368        1.21824       -2.35361
O          5.20207        1.86730       -3.66645
O          5.29025       -0.81826        1.78879
H          3.14612       -1.33341        2.83427
H          2.52884       -0.00189        0.12535
H          6.01274       -0.59842       -0.68150
H          6.01574        1.00084        0.10703
17 17 17 17 17 17 17 17 17 17 17 17 17 17 17 17 17 17 17 17 17 17 17 17 17 17 17 17 17 17 17 17 17 17 17 17 17 17 17 17 17 17 17 17 17 17
C([O-])(=O)C=CC(CC(=O)C([O-])=O)=O
InChI=1S/C7H6O6/c8-4(1-2-6(10)11)3-5(9)7(12)13/h1-2H,3H2,(H,10,11)(H,12,13)/p-2/b2-1-
