25
metacyc CPD-9664  -367.59184704 -367.59184704 -367.59184704 -367.59184704 -367.59184704 -367.59184704 -367.59184704 -367.59184704 -367.59184704 -367.59184704 -367.59184704 -367.59184704 -367.59184704 -367.59184704 -367.59184704
C          0.95056        0.12973        0.09123
O          0.35953       -0.22484       -1.14923
C          2.49122        0.05609        0.02778
O          2.98941        0.42144        1.33090
C          3.00947       -1.36736       -0.27366
O          2.40188       -2.29632        0.64209
C          2.76338       -1.81898       -1.71904
O          3.38882       -3.11025       -1.87217
C          3.34210       -0.82461       -2.72791
O          4.76391       -0.99385       -2.76642
C          2.90941        0.60802       -2.40922
O          2.62229        1.40824       -3.30051
C          3.05598        1.06435       -0.97436
H          0.56389       -0.53164        0.87521
H          0.62546        1.14274        0.35469
H         -0.56745       -0.46261       -0.96299
H          2.82177       -0.35129        1.90858
H          4.08424       -1.42049       -0.05345
H          2.47640       -3.17292        0.21128
H          1.70007       -1.99145       -1.89911
H          4.24194       -2.94506       -2.32998
H          2.97447       -1.08495       -3.72759
H          5.18328       -0.37300       -2.14581
H          2.56571        2.03822       -0.85362
H          4.12372        1.23552       -0.78767
25 25 25 25 25 25 25 25 25 25 25 25 25 25 25 25 25 25 25 25 25 25 25 25 25 25 25 25 25 25 25 25 25 25 25 25 25 25 25 25 25 25 25 25 25 25 25 25 25 25 25 25 25 25 25 25 25 25 25 25 25 25 25 25 25 25 25 25 25 25
C(O)C1(O)(C(O)C(O)C(O)C(=O)C1)
InChI=1S/C7H12O6/c8-2-7(13)1-3(9)4(10)5(11)6(7)12/h4-6,8,10-13H,1-2H2/t4-,5+,6-,7+/m0/s1
