17
metacyc CPD-8151  -49.370829716 -49.370829716 -49.370829716 -49.370829716 -49.370829716 -49.370829716 -49.370829716 -49.370829716 -49.370829716 -49.370829716 -49.370829716 -49.370829716 -49.370829716 -49.370829716 -49.370829716
C          0.99928        0.20374       -0.07595
C          2.52071        0.08285       -0.05041
C          3.08636       -0.41633        1.28845
C          2.63657       -1.79895        1.74774
O          4.51488       -0.35102        1.31965
N          2.97510       -0.84302       -1.15543
O          2.24653       -1.79744       -1.45725
O          4.07696       -0.60262       -1.66393
H          0.66134        0.93130        0.66876
H          0.50036       -0.74718        0.13921
H          0.64894        0.54117       -1.05782
H          2.96219        1.05658       -0.29847
H          2.75998        0.29477        2.05754
H          2.89963       -2.57601        1.02448
H          1.55755       -1.83078        1.92367
H          3.14092       -2.06812        2.68270
H          4.88711       -1.02411        0.71802
17 17 17 17 17 17 17 17 17 17 17 17 17 17 17 17 17 17 17 17 17 17 17 17 17 17 17 17 17 17 17 17 17 17 17 17 17 17 17 17 17 17 17 17 17 17
CC(C(C)O)[N+](=O)[O-]
InChI=1S/C4H9NO3/c1-3(4(2)6)5(7)8/h3-4,6H,1-2H3
