15
metacyc CPD-3621  -154.184734624 -154.184734624 -154.184734624 -154.184734624 -154.184734624 -154.184734624 -154.184734624 -154.184734624 -154.184734624 -154.184734624 -154.184734624 -154.184734624 -154.184734624 -154.184734624 -154.184734624
C          0.90632        0.00379       -0.02910
C          2.42499        0.07092        0.00455
C          2.95835        0.59110       -1.33749
O          2.72871       -0.33253       -2.32042
C          3.19012        0.06025       -3.61241
O          3.49673        1.67846       -1.50048
O          2.80621        0.87240        1.12198
H          0.54966       -0.67739       -0.80751
H          0.47967        0.99429       -0.22421
H          0.51373       -0.32912        0.93761
H          2.85216       -0.92290        0.17157
H          2.99311       -0.77065       -4.30293
H          4.26741        0.24811       -3.60029
H          2.64133        0.93666       -3.97025
H          2.52362        1.78398        0.93210
15 15 15 15 15 15 15 15 15 15 15 15 15 15 15 15 15 15 15 15 15 15 15 15 15 15 15 15 15 15 15 15 15 15 15 15 15 15 15 15
CC(C(OC)=O)O
InChI=1S/C4H8O3/c1-3(5)4(6)7-2/h3,5H,1-2H3/t3-/m1/s1
