16
metacyc CPD-17752  -135.036579128 -135.036579128 -135.036579128 -135.036579128 -135.036579128 -135.036579128 -135.036579128 -135.036579128 -135.036579128 -135.036579128 -135.036579128 -135.036579128 -135.036579128 -135.036579128 -135.036579128
C         -1.63643        1.06205       -0.00172
C         -0.25781        0.76567        0.00020
C          0.95168        1.48139        0.00248
C          2.15084        0.73958        0.00414
N          3.43427        1.45795        0.00703
O          3.39898        2.69640        0.00815
O          4.47282        0.78284        0.00824
C          2.14784       -0.66672        0.00330
C          0.94159       -1.37934        0.00090
C         -0.22555       -0.61874       -0.00048
O         -1.49814       -1.10019       -0.00264
N         -2.39340       -0.03895       -0.00341
H         -2.12309        2.02727       -0.00192
H          0.94766        2.56804        0.00302
H          3.08176       -1.22832        0.00456
H          0.91127       -2.46314        0.00026
16 16 16 16 16 16 16 16 16 16 16 16 16 16 16 16 16 16 16 16 16 16 16 16 16 16 16 16 16 16 16 16 16 16 16 16 16 16 16 16 16 16 16
C1(C2(=CC([N+]([O-])=O)=CC=C(ON=1)2))
InChI=1S/C7H4N2O3/c10-9(11)6-1-2-7-5(3-6)4-8-12-7/h1-4H
