23
metacyc CPD-337  -345.50229352 -345.50229352 -345.50229352 -345.50229352 -345.50229352 -345.50229352 -345.50229352 -345.50229352 -345.50229352 -345.50229352 -345.50229352 -345.50229352 -345.50229352 -345.50229352 -345.50229352
C          2.89079       -0.94922        1.18984
C          2.19466       -0.37089        2.42814
C          1.28624        0.82812        2.17591
C          0.61725        1.37540        3.44622
C          1.57226        1.86419        4.54428
C          2.49337        2.99161        4.09354
C          3.49731        3.34089        5.16878
C          3.19135        4.47766        6.15340
O          2.01710        4.96658        6.08903
O          4.11551        4.85746        6.94514
O          4.56319        2.73446        5.30829
O          3.59426       -1.97716        1.41924
O          2.67463       -0.36843        0.08975
H          2.98389       -0.10087        3.13857
H          1.60635       -1.17731        2.88348
H          0.49218        0.53320        1.47625
H          1.84166        1.62803        1.67355
H         -0.02717        0.59492        3.87081
H         -0.04625        2.20169        3.16017
H          2.15999        1.02424        4.92961
H          0.96892        2.21384        5.39302
H          1.91824        3.88060        3.81261
H          3.07008        2.70464        3.20773
23 23 23 23 23 23 23 23 23 23 23 23 23 23 23 23 23 23 23 23 23 23 23 23 23 23 23 23 23 23 23 23 23 23 23 23 23 23 23 23 23 23 23 23 23 23 23 23 23 23 23 23 23 23 23 23 23 23 23 23 23 23 23 23
C(CCCCCC(C(=O)[O-])=O)([O-])=O
InChI=1S/C8H12O5/c9-6(8(12)13)4-2-1-3-5-7(10)11/h1-5H2,(H,10,11)(H,12,13)/p-2
