21
metacyc CPD-17129  -540.95756064 -540.95756064 -540.95756064 -540.95756064 -540.95756064 -540.95756064 -540.95756064 -540.95756064 -540.95756064 -540.95756064 -540.95756064 -540.95756064 -540.95756064 -540.95756064 -540.95756064
C         -0.82805       -1.01884       -0.08923
O         -1.10663        0.33674        0.26844
C         -0.03529        1.13330       -0.26594
H          0.05180        2.03838        0.34922
C          1.21784        0.26063       -0.04786
C          0.68130       -1.17372       -0.00827
O          1.18613       -1.97652       -1.07428
O          2.26821        0.36905       -1.01260
C         -0.23367        1.53438       -1.72911
C         -1.48162        2.43992       -1.86311
O         -1.19610        3.67739       -1.77527
O         -2.57176        1.87900       -2.14947
O          0.93626        2.31667       -2.13991
H         -1.21377       -1.21381       -1.09623
H         -1.34705       -1.68561        0.60495
H          1.64561        0.50261        0.93243
H          0.96401       -1.65349        0.93496
H          1.83407       -1.39252       -1.52877
H          2.09513        1.20340       -1.51188
H         -0.31554        0.67426       -2.40000
H          0.55262        3.23295       -2.16719
21 21 21 21 21 21 21 21 21 21 21 21 21 21 21 21 21 21 21 21 21 21 21 21 21 21 21 21 21 21 21 21 21 21 21 21 21 21 21 21 21 21 21 21 21 21 21 21 21 21 21 21 21 21 21 21 21 21
C1(O[CH](C(C1O)O)C(C(=O)[O-])O)
InChI=1S/C6H10O6/c7-2-1-12-5(3(2)8)4(9)6(10)11/h2-5,7-9H,1H2,(H,10,11)/p-1/t2-,3+,4-,5+/m0/s1
