16
metacyc CPD-19876  -519.79606016 -519.79606016 -519.79606016 -519.79606016 -519.79606016 -519.79606016 -519.79606016 -519.79606016 -519.79606016 -519.79606016 -519.79606016 -519.79606016 -519.79606016 -519.79606016 -519.79606016
C          0.84842       -0.01633       -0.01402
O          0.17929        1.13243        0.51924
C          2.38576        0.10974        0.00396
O          2.74089        1.35352       -0.65009
C          3.00602        0.12202        1.39709
O          2.51050        1.28111        2.13263
C          2.69151       -1.18741        2.15655
O          2.98121       -2.25998        1.56610
O          2.16798       -0.98524        3.29735
H          0.50441       -0.11155       -1.04487
H          0.50492       -0.90129        0.53941
H          0.88773        1.74210        0.80030
H          2.81141       -0.70306       -0.59417
H          2.96799        1.96280        0.08052
H          4.09361        0.24619        1.33492
H          2.14844        0.84559        2.94926
16 16 16 16 16 16 16 16 16 16 16 16 16 16 16 16 16 16 16 16 16 16 16 16 16 16 16 16 16 16 16 16 16 16 16 16 16 16 16 16 16 16 16
C(O)C(O)C(O)C([O-])=O
InChI=1S/C4H8O5/c5-1-2(6)3(7)4(8)9/h2-3,5-7H,1H2,(H,8,9)/p-1/t2-,3+/m1/s1
