28
metacyc CPD-19338  -468.75159488 -468.75159488 -468.75159488 -468.75159488 -468.75159488 -468.75159488 -468.75159488 -468.75159488 -468.75159488 -468.75159488 -468.75159488 -468.75159488 -468.75159488 -468.75159488 -468.75159488
C          1.05169        0.04620        0.52312
O          0.64665        1.41199        0.61711
C          2.51917       -0.06200        0.07871
C          2.96858       -1.50283       -0.19695
O          2.38619       -2.41389        0.73892
C          2.60890       -1.94524       -1.61467
O          3.22019       -3.22350       -1.85370
C          3.11686       -0.92996       -2.63174
O          4.56523       -0.92352       -2.55032
C          2.56342        0.48069       -2.32475
C          1.08401        0.65162       -2.72875
O          0.93316        0.47703       -4.14439
O          3.32136        1.39465       -3.14489
O          2.82112        0.86773       -0.97733
H          0.37479       -0.45196       -0.17283
H          0.90887       -0.41799        1.50486
H          1.33324        1.94955        0.17873
H          3.10383        0.30467        0.93345
H          4.05556       -1.57095       -0.06281
H          2.46741       -3.30276        0.33685
H          1.53038       -2.09761       -1.71038
H          4.14621       -3.02583       -2.11262
H          2.88717       -1.24635       -3.65522
H          4.82810        0.02076       -2.49167
H          0.71891        1.65001       -2.46317
H          0.43270       -0.07802       -2.24764
H          0.87645        1.36963       -4.53298
H          3.27043        1.04512       -4.05433
28 28 28 28 28 28 28 28 28 28 28 28 28 28 28 28 28 28 28 28 28 28 28 28 28 28 28 28 28 28 28 28 28 28 28 28 28 28 28 28 28 28 28 28 28 28 28 28 28 28 28 28 28 28 28 28 28 28 28 28 28 28 28 28 28 28 28 28 28 28 28 28 28 28 28 28 28 28 28
C(O)C1(C(O)C(O)C(O)C(CO)(O)O1)
InChI=1S/C7H14O7/c8-1-3-4(10)5(11)6(12)7(13,2-9)14-3/h3-6,8-13H,1-2H2/t3-,4-,5-,6+,7-/m1/s1
