20
metacyc CPD-17155  -155.807122464 -155.807122464 -155.807122464 -155.807122464 -155.807122464 -155.807122464 -155.807122464 -155.807122464 -155.807122464 -155.807122464 -155.807122464 -155.807122464 -155.807122464 -155.807122464 -155.807122464
C          0.85508        0.14921        0.11914
C          2.37013        0.08947       -0.05786
C          2.88161       -1.31396       -0.35110
C          2.53982       -1.71411       -1.77732
O          3.10992       -2.99959       -2.03400
C          3.08928       -0.67988       -2.75662
O          4.52067       -0.77229       -2.77261
C          2.59525        0.71630       -2.38911
O          2.23964        1.54687       -3.21592
O          2.75232        1.03899       -1.07574
H          0.51416       -0.56139        0.87757
H          0.32801       -0.05616       -0.81817
H          0.55365        1.15678        0.42564
H          2.83319        0.43310        0.87445
H          2.48209       -2.04371        0.36361
H          3.97164       -1.34141       -0.22014
H          1.45487       -1.80818       -1.89178
H          4.02027       -2.83970       -2.35698
H          2.74364       -0.92385       -3.76728
H          4.86475       -0.17820       -2.07982
20 20 20 20 20 20 20 20 20 20 20 20 20 20 20 20 20 20 20 20 20 20 20 20 20 20 20 20 20 20 20 20 20 20 20 20 20 20 20 20 20 20 20 20 20 20 20 20 20 20 20 20 20 20 20
CC1(CC(O)C(O)C(=O)O1)
InChI=1S/C6H10O4/c1-3-2-4(7)5(8)6(9)10-3/h3-5,7-8H,2H2,1H3/t3-,4+,5-/m0/s1
