18
metacyc CPD-18274  -94.450549032 -94.450549032 -94.450549032 -94.450549032 -94.450549032 -94.450549032 -94.450549032 -94.450549032 -94.450549032 -94.450549032 -94.450549032 -94.450549032 -94.450549032 -94.450549032 -94.450549032
C          1.02047       -0.08538        0.08285
C          2.51422       -0.05476       -0.03866
C          3.20015        1.16511       -0.08922
C          4.59227        1.19320       -0.22733
C          5.33402        0.00539       -0.31916
C          4.64242       -1.21411       -0.25881
C          3.25361       -1.23752       -0.12192
O          2.59612       -2.43742       -0.07196
C          6.84019        0.03152       -0.48543
O          7.39911        1.17132       -0.54263
O          7.43029       -1.09330       -0.55956
H          0.60534        0.92284        0.18175
H          0.72024       -0.65536        0.96760
H          0.57944       -0.54177       -0.80950
H          2.66235        2.10673       -0.02687
H          5.11584        2.14731       -0.27012
H          5.21813       -2.13430       -0.32696
H          3.27591       -3.12854       -0.14591
18 18 18 18 18 18 18 18 18 18 18 18 18 18 18 18 18 18 18 18 18 18 18 18 18 18 18 18 18 18 18 18 18 18 18 18 18 18 18 18 18 18 18 18 18 18 18 18 18
CC1(C=CC(=CC(O)=1)C([O-])=O)
InChI=1S/C8H8O3/c1-5-2-3-6(8(10)11)4-7(5)9/h2-4,9H,1H3,(H,10,11)/p-1
