19
metacyc CPD-18133  -420.10062864 -420.10062864 -420.10062864 -420.10062864 -420.10062864 -420.10062864 -420.10062864 -420.10062864 -420.10062864 -420.10062864 -420.10062864 -420.10062864 -420.10062864 -420.10062864 -420.10062864
C          0.99108        0.48720        0.14868
H          0.56541        0.68404       -0.84851
O          0.28590        0.24458        1.12139
C          2.45976        0.54125        0.25858
C          3.20893        0.79733       -0.82309
C          4.66227        0.82542       -0.79830
C          5.34449        1.62936        0.03170
C          6.77637        1.62168        0.05978
C          7.45219        0.80274       -0.75470
C          9.00471        0.72750       -0.72626
O          9.56755        1.48914        0.11559
O          9.52464       -0.08452       -1.54195
O          6.77542       -0.03930       -1.67841
C          5.41225       -0.04498       -1.75983
O          4.80557       -0.73701       -2.57555
H          2.87843        0.34266        1.23878
H          2.76243        0.93873       -1.80623
H          4.84614        2.30025        0.72417
H          7.29960        2.26575        0.76189
19 19 19 19 19 19 19 19 19 19 19 19 19 19 19 19 19 19 19 19 19 19 19 19 19 19 19 19 19 19 19 19 19 19 19 19 19 19 19 19 19 19 19 19 19 19 19 19 19 19 19 19
[CH](=O)C=CC1(=CC=C(C([O-])=O)OC(=O)1)
InChI=1S/C9H6O5/c10-5-1-2-6-3-4-7(8(11)12)14-9(6)13/h1-5H,(H,11,12)/p-1/b2-1+
