22
metacyc CPD-14490  -708.65228064 -708.65228064 -708.65228064 -708.65228064 -708.65228064 -708.65228064 -708.65228064 -708.65228064 -708.65228064 -708.65228064 -708.65228064 -708.65228064 -708.65228064 -708.65228064 -708.65228064
C          0.98234        0.11418        0.19650
O          0.27368       -0.07508       -0.83052
O          0.62309        0.45627        1.35996
C          2.51167       -0.01051       -0.00126
O          2.95310       -1.34023       -0.38430
C          2.54684       -1.73516       -1.69289
O          3.16853       -3.00142       -1.95618
C          3.02694       -0.74472       -2.77628
O          4.48209       -0.84408       -2.86283
C          2.61751        0.69570       -2.44128
O          3.28076        1.60773       -3.34106
C          3.01435        1.03659       -0.99409
O          4.47487        1.05063       -0.95279
H          2.98510        0.16506        0.97214
H          1.46868       -1.90084       -1.72916
H          4.05165       -2.75218       -2.28883
H          2.66173       -1.03966       -3.76475
H          4.80557       -0.39565       -2.05122
H          1.54550        0.83015       -2.60424
H          4.22504        1.53604       -3.09887
H          2.68542        2.04738       -0.73266
H          4.71674        0.90434       -0.01824
22 22 22 22 22 22 22 22 22 22 22 22 22 22 22 22 22 22 22 22 22 22 22 22 22 22 22 22 22 22 22 22 22 22 22 22 22 22 22 22 22 22 22 22 22 22 22 22 22 22 22 22 22 22 22 22 22 22 22 22 22
C([O-])(=O)C1(OC(O)C(O)C(O)C(O)1)
InChI=1S/C6H10O7/c7-1-2(8)4(5(10)11)13-6(12)3(1)9/h1-4,6-9,12H,(H,10,11)/p-1/t1-,2-,3-,4-,6-/m0/s1
