16
metacyc CPD-283  -195.54066256 -195.54066256 -195.54066256 -195.54066256 -195.54066256 -195.54066256 -195.54066256 -195.54066256 -195.54066256 -195.54066256 -195.54066256 -195.54066256 -195.54066256 -195.54066256 -195.54066256
C          0.29295        1.40500        0.00083
O          0.51072        2.61908       -0.00725
N         -0.98650        0.93324       -0.01316
C         -1.34451       -0.38281       -0.01135
C         -0.43267       -1.35768        0.00270
C         -0.88824       -2.83568       -0.00141
O         -2.13748       -3.02646       -0.01744
O          0.05092       -3.68105        0.01115
C          1.03441       -1.07594        0.01864
C          1.42361        0.40091        0.03321
H         -1.71387        1.63519       -0.02967
H         -2.41147       -0.59530       -0.02462
H          1.49885       -1.54663       -0.85747
H          1.48357       -1.55851        0.89622
H          2.06898        0.61036       -0.82848
H          2.01425        0.60803        0.93410
16 16 16 16 16 16 16 16 16 16 16 16 16 16 16 16 16 16 16 16 16 16 16 16 16 16 16 16 16 16 16 16 16 16 16 16 16 16 16 16 16 16 16
C1(=O)(NC=C(C(=O)[O-])CC1)
InChI=1S/C6H7NO3/c8-5-2-1-4(3-7-5)6(9)10/h3H,1-2H2,(H,7,8)(H,9,10)/p-1
