19
metacyc CPD-310  -230.08175824 -230.08175824 -230.08175824 -230.08175824 -230.08175824 -230.08175824 -230.08175824 -230.08175824 -230.08175824 -230.08175824 -230.08175824 -230.08175824 -230.08175824 -230.08175824 -230.08175824
C          1.00639       -0.18425        0.46846
C          2.44950        0.17482        0.09706
N          2.61316        0.31037       -1.40057
C          2.33733       -0.94743       -2.19249
C          2.36191       -0.82518       -3.77516
O          3.46015       -1.06617       -4.37855
O          1.22623       -0.65604       -4.33826
C          3.31718       -2.06595       -1.82074
C          2.86284        1.42430        0.98389
O          1.95437        2.26415        1.29721
O          4.05035        1.40252        1.45902
H          0.76553       -1.21044        0.17176
H          0.28418        0.48114       -0.02036
H          0.84269       -0.12613        1.55035
H          3.09226       -0.63259        0.47096
H          1.32514       -1.31264       -1.97238
H          4.35799       -1.72921       -1.88404
H          3.20054       -2.93427       -2.47900
H          3.14514       -2.42318       -0.80049
19 19 19 19 19 19 19 19 19 19 19 19 19 19 19 19 19 19 19 19 19 19 19 19 19 19 19 19 19 19 19 19 19 19 19 19 19 19 19 19 19 19 19 19 19 19 19 19 19 19 19 19
CC([N+]C(C([O-])=O)C)C(=O)[O-]
InChI=1S/C6H11NO4/c1-3(5(8)9)7-4(2)6(10)11/h3-4,7H,1-2H3,(H,8,9)(H,10,11)/p-1
