18
metacyc CPD-14380  -26.335008112 -26.335008112 -26.335008112 -26.335008112 -26.335008112 -26.335008112 -26.335008112 -26.335008112 -26.335008112 -26.335008112 -26.335008112 -26.335008112 -26.335008112 -26.335008112 -26.335008112
C          0.92378        0.06937       -0.30565
O          2.31601        0.04456       -0.05090
C          2.95752        1.22156        0.22404
C          2.31299        2.47099        0.18276
C          3.01480        3.65586        0.41748
C          4.37313        3.61045        0.69530
C          5.02100        2.37774        0.74769
C          4.33300        1.16332        0.52341
C          5.13231       -0.12880        0.61598
O          6.38581       -0.03148        0.39394
O          4.54047       -1.20149        0.95408
H          0.58828       -0.96306       -0.44401
H          0.70524        0.61434       -1.22989
H          0.36686        0.48639        0.53998
H          1.25599        2.55301       -0.04224
H          2.49944        4.60994        0.37518
H          4.93493        4.52215        0.86953
H          6.08867        2.34090        0.96453
18 18 18 18 18 18 18 18 18 18 18 18 18 18 18 18 18 18 18 18 18 18 18 18 18 18 18 18 18 18 18 18 18 18 18 18 18 18 18 18 18 18 18 18 18 18 18 18 18
COC1(C=CC=CC(C(=O)[O-])=1)
InChI=1S/C8H8O3/c1-11-7-5-3-2-4-6(7)8(9)10/h2-5H,1H3,(H,9,10)/p-1
