29
metacyc CPD-15682  -93.44206696 -93.44206696 -93.44206696 -93.44206696 -93.44206696 -93.44206696 -93.44206696 -93.44206696 -93.44206696 -93.44206696 -93.44206696 -93.44206696 -93.44206696 -93.44206696 -93.44206696
C          0.99486        0.05625        0.28305
C          2.51077       -0.00649        0.08324
C          3.03174       -1.40317       -0.29755
O          2.54163       -2.39512        0.60535
C          2.69078       -1.73792       -1.76329
C          3.16082       -0.61675       -2.71611
C          2.58673        0.72872       -2.20433
O          3.04802        1.81726       -2.98538
O          2.95959        0.98073       -0.85383
N          4.63183       -0.57451       -2.81117
C          5.46119       -1.25385       -3.65217
C          4.89642       -2.11061       -4.75398
O          6.67598       -1.13474       -3.49607
O          3.23094       -3.01340       -2.12645
H          0.67810       -0.58218        1.11368
H          0.44466       -0.25984       -0.60823
H          0.68403        1.08353        0.49765
H          2.95736        0.26252        1.04879
H          4.12357       -1.41010       -0.18856
H          1.80414       -2.87024        0.18314
H          1.60489       -1.85222       -1.86206
H          2.78513       -0.79865       -3.72775
H          1.49654        0.72362       -2.28991
H          3.99301        1.89252       -2.78280
H          5.14001       -0.06379       -2.09536
H          3.85544       -2.38871       -4.59565
H          5.47542       -3.03794       -4.80536
H          4.98410       -1.57694       -5.70311
H          4.16309       -3.03470       -1.83823
29 29 29 29 29 29 29 29 29 29 29 29 29 29 29 29 29 29 29 29 29 29 29 29 29 29 29 29 29 29 29 29 29 29 29 29 29 29 29 29 29 29 29 29 29 29 29 29 29 29 29 29 29 29 29 29 29 29 29 29 29 29 29 29 29 29 29 29 29 29 29 29 29 29 29 29 29 29 29 29 29 29
CC1(C(O)C(C(C(O)O1)NC(C)=O)O)
InChI=1S/C8H15NO5/c1-3-6(11)7(12)5(8(13)14-3)9-4(2)10/h3,5-8,11-13H,1-2H3,(H,9,10)/t3-,5+,6-,7-,8-/m0/s1
