12
metacyc CPD-19002  -239.33852352 -239.33852352 -239.33852352 -239.33852352 -239.33852352 -239.33852352 -239.33852352 -239.33852352 -239.33852352 -239.33852352 -239.33852352 -239.33852352 -239.33852352 -239.33852352 -239.33852352
C          1.00115        0.04947        0.00932
C          2.49795        0.08313        0.06577
O          3.03689       -0.08197       -1.16799
C          4.46016       -0.05802       -1.17587
O          5.00730       -1.16983       -0.49186
O          3.13957        0.22933        1.09920
H          0.65159       -0.04086       -1.02321
H          0.60503        0.97892        0.42562
H          0.63779       -0.81097        0.57642
H          4.84746        0.88059       -0.76124
H          4.78349       -0.11642       -2.21939
H          4.89743       -0.95566        0.45425
12 12 12 12 12 12 12 12 12 12 12 12 12 12 12 12 12 12 12 12 12 12 12 12 12 12 12 12 12 12 12
CC(OCO)=O
InChI=1S/C3H6O3/c1-3(5)6-2-4/h4H,2H2,1H3
