28
metacyc CPD-1771  -165.37370876 -165.37370876 -165.37370876 -165.37370876 -165.37370876 -165.37370876 -165.37370876 -165.37370876 -165.37370876 -165.37370876 -165.37370876 -165.37370876 -165.37370876 -165.37370876 -165.37370876
C          5.45552       -4.25820       -2.64463
C          4.79857       -3.44030       -1.56593
O          4.00692       -3.94532       -0.77781
N          5.15629       -2.12634       -1.59459
C          4.66492       -1.04553       -0.70496
C          5.26109       -1.20834        0.70311
C          4.74971       -0.16629        1.70485
C          5.27096       -0.41036        3.13141
C          4.82619        0.68436        4.11161
N          3.36611        0.67141        4.27892
C          5.42763        0.56213        5.53483
O          5.73232       -0.60179        5.93098
O          5.58213        1.66110        6.15781
C          5.04740        0.34340       -1.33891
O          6.06709        0.29281       -2.10244
O          4.26093        1.30486       -1.11773
H          5.76202       -5.22219       -2.23157
H          6.34528       -3.76097       -3.04378
H          4.74048       -4.41367       -3.45760
H          5.79260       -1.75086       -2.29706
H          3.57289       -1.13774       -0.66286
H          6.35640       -1.16225        0.65145
H          5.01478       -2.20862        1.08298
H          3.65389       -0.18081        1.70400
H          5.06606        0.83265        1.38672
H          6.36857       -0.44671        3.11179
H          4.93730       -1.39728        3.47892
H          5.12019        1.66114        3.70668
28 28 28 28 28 28 28 28 28 28 28 28 28 28 28 28 28 28 28 28 28 28 28 28 28 28 28 28 28 28 28 28 28 28 28 28 28 28 28 28 28 28 28 28 28 28 28 28 28 28 28 28 28 28 28 28 28 28 28 28 28 28 28 28 28 28 28 28 28 28 28 28 28 28 28 28 28 28 28
CC(=O)NC(CCCC([N+])C(=O)[O-])C(=O)[O-]
InChI=1S/C9H16N2O5/c1-5(12)11-7(9(15)16)4-2-3-6(10)8(13)14/h6-7H,2-4,10H2,1H3,(H,11,12)(H,13,14)(H,15,16)/p-1/t6-,7-/m0/s1
