18
metacyc CPD-15181  -754.98133608 -754.98133608 -754.98133608 -754.98133608 -754.98133608 -754.98133608 -754.98133608 -754.98133608 -754.98133608 -754.98133608 -754.98133608 -754.98133608 -754.98133608 -754.98133608 -754.98133608
C          2.77086        1.16884        0.11005
C          2.03818        2.29649        0.82843
C          0.82365        2.15748        1.38160
C          0.10965        3.20227        2.10332
N         -1.34652        3.13675        2.09591
O         -1.95625        3.97758        1.41635
O         -1.87073        2.16548        2.66653
C          0.70086        4.16273        2.82915
C          0.10296        5.23894        3.65694
O         -1.10162        5.34497        3.86552
C          1.05422        6.26016        4.32986
O          2.30192        6.05509        4.16101
O          0.54039        7.21124        4.99734
O          3.90014        1.50074       -0.35060
O          2.17564        0.05797        0.06032
H          2.58128        3.24064        0.86942
H          0.31842        1.19099        1.30166
H          1.79201        4.18564        2.84979
18 18 18 18 18 18 18 18 18 18 18 18 18 18 18 18 18 18 18 18 18 18 18 18 18 18 18 18 18 18 18 18 18 18 18 18 18 18 18 18 18 18 18 18 18 18 18 18 18
C(C=CC([N+]([O-])=O)=CC(=O)C(=O)[O-])(=O)[O-]
InChI=1S/C7H5NO7/c9-5(7(12)13)3-4(8(14)15)1-2-6(10)11/h1-3H,(H,10,11)(H,12,13)/p-2/b2-1+,4-3-
