22
metacyc CPD-18152  -218.57651136 -218.57651136 -218.57651136 -218.57651136 -218.57651136 -218.57651136 -218.57651136 -218.57651136 -218.57651136 -218.57651136 -218.57651136 -218.57651136 -218.57651136 -218.57651136 -218.57651136
C          3.88966        1.83714        0.13977
O          2.76338        1.11544       -0.37339
C          2.87535        1.06813       -1.79227
O          2.11112        2.09552       -2.38679
C          4.32033        1.24852       -2.10851
C          4.93946        0.89254       -3.25127
O          4.29360        0.60583       -4.42503
C          6.38970        0.90531       -3.32936
C          6.93715        2.12237       -3.20266
O          6.51163        3.19426       -3.97708
C          7.29134        2.41586       -1.78079
O          8.41773        2.76272       -1.44282
C          6.18324        2.32441       -0.76475
C          4.94739        1.81202       -0.92254
H          4.21618        1.35849        1.06769
H          3.56593        2.86157        0.35192
H          2.49297        0.10059       -2.13465
H          2.49814        2.92755       -2.07074
H          3.40844        1.02102       -4.39012
H          6.79004        0.08453       -2.72050
H          6.19547        2.80841       -4.81529
H          6.47143        2.76492        0.18573
22 22 22 22 22 22 22 22 22 22 22 22 22 22 22 22 22 22 22 22 22 22 22 22 22 22 22 22 22 22 22 22 22 22 22 22 22 22 22 22 22 22 22 22 22 22 22 22 22 22 22 22 22 22 22 22 22 22 22 22 22
C1(OC(O)C2(=C(O)C=C(O)C(=O)C=C12))
InChI=1S/C9H8O5/c10-5-1-4-3-14-9(13)8(4)7(12)2-6(5)11/h1-2,9,12-13H,3H2,(H,10,11)
