17
metacyc CPD-984  -89.128229072 -89.128229072 -89.128229072 -89.128229072 -89.128229072 -89.128229072 -89.128229072 -89.128229072 -89.128229072 -89.128229072 -89.128229072 -89.128229072 -89.128229072 -89.128229072 -89.128229072
C          0.93069       -0.08526       -0.03813
C          2.42821       -0.01970       -0.03516
C          3.18899        1.15507       -0.03457
O          2.64298        2.40167       -0.03619
N          4.53800        1.18837       -0.03240
C          5.14857       -0.00109       -0.03075
C          4.51362       -1.22693       -0.03119
C          3.13159       -1.23728       -0.03349
O          5.20627       -2.39847       -0.02946
O          6.50737        0.06431       -0.02844
H          0.44627        0.89259       -0.03734
H          0.58054       -0.62081        0.85097
H          0.58395       -0.61794       -0.93028
H          1.68134        2.33800       -0.03412
H          2.60469       -2.18775       -0.03404
H          6.15015       -2.14062       -0.02802
H          6.61467        1.03483       -0.02870
17 17 17 17 17 17 17 17 17 17 17 17 17 17 17 17 17 17 17 17 17 17 17 17 17 17 17 17 17 17 17 17 17 17 17 17 17 17 17 17 17 17 17 17 17 17
CC1(C(O)=NC(=C(C=1)O)O)
InChI=1S/C6H7NO3/c1-3-2-4(8)6(10)7-5(3)9/h2,8H,1H3,(H2,7,9,10)
