28
metacyc CPD-18063  -444.81447064 -444.81447064 -444.81447064 -444.81447064 -444.81447064 -444.81447064 -444.81447064 -444.81447064 -444.81447064 -444.81447064 -444.81447064 -444.81447064 -444.81447064 -444.81447064 -444.81447064
C          1.00507        0.35056        0.28077
N          0.83452        0.92328        1.61901
C          2.48757        0.09302       -0.03321
O          3.23004        1.32143        0.10715
C          3.11111       -1.00860        0.85523
H          3.06157       -0.66084        1.89573
O          2.38234       -2.24221        0.84604
C          2.51295       -3.04351       -0.34435
O          1.85560       -2.38805       -1.44579
C          1.78078       -4.44920       -0.10446
O          2.29300       -5.23180        0.74207
O          0.75085       -4.59068       -0.84466
C          3.96524       -3.33855       -0.70392
C          4.78076       -2.05375       -0.73883
C          4.59523       -1.26153        0.55975
O          5.17074       -2.03712        1.64066
O          6.17021       -2.38108       -0.89102
H          0.60742        1.07954       -0.43309
H          0.40920       -0.56246        0.19474
H          2.56362       -0.17259       -1.09126
H          3.02021        1.66384        0.99524
H          1.08809       -2.99844       -1.59738
H          4.03626       -3.83867       -1.67789
H          4.42216       -4.02727        0.01831
H          4.49351       -1.44711       -1.60428
H          5.17192       -0.33150        0.52408
H          4.49739       -2.70984        1.87799
H          6.46208       -2.64360        0.00550
28 28 28 28 28 28 28 28 28 28 28 28 28 28 28 28 28 28 28 28 28 28 28 28 28 28 28 28 28 28 28 28 28 28 28 28 28 28 28 28 28 28 28 28 28 28 28 28 28 28 28 28 28 28 28 28 28 28 28 28 28 28 28 28 28 28 28 28 28 28 28 28 28 28 28 28 28 28 28
C([N+])C(O)[CH]1(OC(O)(C([O-])=O)CC(C1O)O)
InChI=1S/C8H15NO7/c9-2-4(11)6-5(12)3(10)1-8(15,16-6)7(13)14/h3-6,10-12,15H,1-2,9H2,(H,13,14)/t3-,4-,5-,6-,8-/m1/s1
