18
metacyc CPD-12220  -26.335008112 -26.335008112 -26.335008112 -26.335008112 -26.335008112 -26.335008112 -26.335008112 -26.335008112 -26.335008112 -26.335008112 -26.335008112 -26.335008112 -26.335008112 -26.335008112 -26.335008112
C          1.19806       -0.00522       -0.05287
O          2.60412       -0.01468        0.14041
C          3.20224       -1.24059        0.26586
C          4.58897       -1.20496        0.44852
C          5.34186       -2.38496        0.58587
C          4.66374       -3.61204        0.53557
C          3.28094       -3.65799        0.35669
C          2.55082       -2.47469        0.22340
C          6.84461       -2.33592        0.78193
O          7.39075       -1.18888        0.81957
O          7.44891       -3.44983        0.89461
H          0.88374        1.03618       -0.17221
H          0.67830       -0.41176        0.82103
H          0.91659       -0.54086       -0.96565
H          5.10506       -0.24663        0.48527
H          5.23241       -4.53521        0.63857
H          2.77808       -4.61937        0.32143
H          1.47919       -2.55209        0.08719
18 18 18 18 18 18 18 18 18 18 18 18 18 18 18 18 18 18 18 18 18 18 18 18 18 18 18 18 18 18 18 18 18 18 18 18 18 18 18 18 18 18 18 18 18 18 18 18 18
COC1(=CC(=CC=C1)C([O-])=O)
InChI=1S/C8H8O3/c1-11-7-4-2-3-6(5-7)8(9)10/h2-5H,1H3,(H,9,10)/p-1
