18
metacyc CPD-10902  -6.2518152248 -6.2518152248 -6.2518152248 -6.2518152248 -6.2518152248 -6.2518152248 -6.2518152248 -6.2518152248 -6.2518152248 -6.2518152248 -6.2518152248 -6.2518152248 -6.2518152248 -6.2518152248 -6.2518152248
C          0.90043        1.41008       -0.06743
O          0.97044        0.56371       -1.00653
O         -0.12207        1.99841        0.39715
C          2.24077        1.86828        0.53724
O          2.96709        0.74805        1.08130
C          4.30831        0.95309        1.25985
C          4.92169        2.20143        1.38753
C          6.30743        2.29642        1.52062
C          7.08743        1.14220        1.54727
C          6.47890       -0.10821        1.45801
C          5.09093       -0.20086        1.32085
H          2.05430        2.59299        1.33883
H          2.80510        2.34634       -0.27359
H          4.33274        3.11382        1.38062
H          6.77278        3.27437        1.59575
H          8.16702        1.21846        1.63485
H          7.07822       -1.01285        1.48200
H          4.61133       -1.17244        1.23551
18 18 18 18 18 18 18 18 18 18 18 18 18 18 18 18 18 18 18 18 18 18 18 18 18 18 18 18 18 18 18 18 18 18 18 18 18 18 18 18 18 18 18 18 18 18 18 18 18
C(=O)([O-])COC1(C=CC=CC=1)
InChI=1S/C8H8O3/c9-8(10)6-11-7-4-2-1-3-5-7/h1-5H,6H2,(H,9,10)/p-1
