17
metacyc CPD-8857  -40.742486592 -40.742486592 -40.742486592 -40.742486592 -40.742486592 -40.742486592 -40.742486592 -40.742486592 -40.742486592 -40.742486592 -40.742486592 -40.742486592 -40.742486592 -40.742486592 -40.742486592
C          2.63526        0.58686       -1.44844
C          2.29836        0.04600       -0.06482
C          2.97295       -1.30193        0.25899
C          2.49862       -2.46687       -0.62605
C          3.13647       -3.71240        0.03266
O          2.41529       -4.45481        0.75375
O          4.38470       -3.80602       -0.19663
N          1.04223       -2.60856       -0.67218
O          4.39526       -1.08970        0.12247
H          2.09021        1.51453       -1.63053
H          2.36687       -0.12044       -2.23740
H          3.70458        0.80843       -1.53417
H          1.21060       -0.03632        0.04387
H          2.63324        0.78745        0.67048
H          2.78720       -1.52749        1.31886
H          2.88770       -2.37622       -1.64642
H          4.79438       -1.99403        0.08503
17 17 17 17 17 17 17 17 17 17 17 17 17 17 17 17 17 17 17 17 17 17 17 17 17 17 17 17 17 17 17 17 17 17 17 17 17 17 17 17 17 17 17 17 17 17
CCC(C(C(=O)[O-])[N+])O
InChI=1S/C5H11NO3/c1-2-3(7)4(6)5(8)9/h3-4,7H,2,6H2,1H3,(H,8,9)
