28
metacyc CPD-16698  -395.97267216 -395.97267216 -395.97267216 -395.97267216 -395.97267216 -395.97267216 -395.97267216 -395.97267216 -395.97267216 -395.97267216 -395.97267216 -395.97267216 -395.97267216 -395.97267216 -395.97267216
C          1.42368        2.89067       -0.51308
N          2.75409        2.50133       -0.87313
C          3.38137        1.38873       -0.37135
O          2.81502        0.64649        0.43164
N          4.66616        1.15061       -0.89301
C          5.34809       -0.04454       -0.42097
C          5.29970        1.98228       -1.79998
C          6.37178        1.51831       -2.78391
C          5.85316        0.31758       -3.65150
O          4.80679        0.49397       -4.33489
O          6.60645       -0.70873       -3.56972
O          7.60701        1.16819       -2.15037
N          6.57241        2.80029       -3.43756
C          6.84553        2.87409       -4.85442
C          5.76207        3.76439       -2.88434
O          5.66283        4.91180       -3.29317
N          5.03329        3.25349       -1.85286
H          1.17544        3.80786       -1.05312
H          1.37411        3.06402        0.56413
H          0.72783        2.09554       -0.79216
H          3.37150        3.19423       -1.29357
H          4.76538       -0.59661        0.32087
H          6.29131        0.25654        0.04638
H          5.56464       -0.71922       -1.24866
H          7.72628        0.23532       -2.45346
H          7.29896        1.95120       -5.22190
H          7.52740        3.70986       -5.03464
H          5.91150        3.07293       -5.39311
28 28 28 28 28 28 28 28 28 28 28 28 28 28 28 28 28 28 28 28 28 28 28 28 28 28 28 28 28 28 28 28 28 28 28 28 28 28 28 28 28 28 28 28 28 28 28 28 28 28 28 28 28 28 28 28 28 28 28 28 28 28 28 28 28 28 28 28 28 28 28 28 28 28 28 28 28 28 28
CNC(=O)N(C)C1(C(C([O-])=O)(O)N(C)C(=O)N=1)
InChI=1S/C8H12N4O5/c1-9-6(15)11(2)4-8(17,5(13)14)12(3)7(16)10-4/h17H,1-3H3,(H,9,15)(H,13,14)/p-1
