18
metacyc CPD-159  -0.40871429104 -0.40871429104 -0.40871429104 -0.40871429104 -0.40871429104 -0.40871429104 -0.40871429104 -0.40871429104 -0.40871429104 -0.40871429104 -0.40871429104 -0.40871429104 -0.40871429104 -0.40871429104 -0.40871429104
C          1.03372       -0.38541       -0.12020
C          2.55777       -0.44960       -0.00810
C          3.04225       -0.70475        1.42351
C          2.86636        0.51565        2.31826
C          3.17642        0.43469        3.78746
C          3.99563       -0.77834        4.14592
O          3.34745       -1.86073        4.21205
O          5.22167       -0.56673        4.34926
O          2.42485        1.57844        1.85653
N          3.01611       -1.53715       -0.87819
H          0.60681        0.36736        0.54928
H          0.56787       -1.34686        0.12459
H          0.73377       -0.11874       -1.14053
H          2.98281        0.48546       -0.38915
H          4.11401       -0.93911        1.40998
H          2.49409       -1.55041        1.85082
H          2.23401        0.42186        4.34442
H          3.72637        1.34366        4.06666
18 18 18 18 18 18 18 18 18 18 18 18 18 18 18 18 18 18 18 18 18 18 18 18 18 18 18 18 18 18 18 18 18 18 18 18 18 18 18 18 18 18 18 18 18 18 18 18 18
CC(CC(CC([O-])=O)=O)[N+]
InChI=1S/C6H11NO3/c1-4(7)2-5(8)3-6(9)10/h4H,2-3,7H2,1H3,(H,9,10)/t4-/m0/s1
