17
metacyc CPD-20022  -239.17116352 -239.17116352 -239.17116352 -239.17116352 -239.17116352 -239.17116352 -239.17116352 -239.17116352 -239.17116352 -239.17116352 -239.17116352 -239.17116352 -239.17116352 -239.17116352 -239.17116352
C         -0.69623        1.20997        0.02045
C          0.69434        1.18293       -0.00647
O          1.42578        2.33426       -0.00802
C          1.39190       -0.02242       -0.02842
C          0.68228       -1.22330       -0.02983
O          1.35979       -2.41195       -0.04865
C         -0.71637       -1.21683       -0.00440
C         -1.45840       -2.49027       -0.01354
H         -0.88938       -3.41856       -0.18252
O         -2.67565       -2.50287        0.15471
C         -1.39932        0.00736        0.02906
O         -2.76439        0.09994        0.06303
H         -1.24679        2.14589        0.03631
H          0.81590        3.09192        0.01419
H          2.47768       -0.00243       -0.04302
H          2.31638       -2.23365       -0.01824
H         -3.12843       -0.81332        0.12769
17 17 17 17 17 17 17 17 17 17 17 17 17 17 17 17 17 17 17 17 17 17 17 17 17 17 17 17 17 17 17 17 17 17 17 17 17 17 17 17 17 17 17 17 17 17
C1(C(O)=CC(O)=C([CH]=O)C(O)=1)
InChI=1S/C7H6O4/c8-3-5-6(10)1-4(9)2-7(5)11/h1-3,9-11H
