20
metacyc CPD-10776  -339.6520992 -339.6520992 -339.6520992 -339.6520992 -339.6520992 -339.6520992 -339.6520992 -339.6520992 -339.6520992 -339.6520992 -339.6520992 -339.6520992 -339.6520992 -339.6520992 -339.6520992
C          1.03611        0.11037       -0.07506
C          2.55695        0.08058       -0.03311
O          3.05735        0.24908       -1.36101
O          3.03637        1.15992        0.77108
C          4.36439        0.79762        1.17251
C          4.37323       -0.70807        1.39431
O          5.61676       -1.27971        0.98093
C          3.16419       -1.22077        0.58315
O          2.23200       -1.90812        1.40932
O          3.63364       -2.13947       -0.40777
H          0.68270        1.03963       -0.53735
H          0.60291        0.07329        0.92911
H          0.64232       -0.71826       -0.67267
H          2.66173        1.07883       -1.68010
H          4.61916        1.34328        2.08599
H          5.07031        1.10572        0.39377
H          4.25520       -0.92291        2.46166
H          5.37081       -1.98585        0.34357
H          2.22866       -1.48433        2.28412
H          3.34355       -1.75554       -1.25955
20 20 20 20 20 20 20 20 20 20 20 20 20 20 20 20 20 20 20 20 20 20 20 20 20 20 20 20 20 20 20 20 20 20 20 20 20 20 20 20 20 20 20 20 20 20 20 20 20 20 20 20 20 20 20
CC1(O)(OCC(O)C(O)(O)1)
InChI=1S/C5H10O5/c1-4(7)5(8,9)3(6)2-10-4/h3,6-9H,2H2,1H3/t3-,4-/m0/s1
