22
metacyc CPD-14806  -705.054208 -705.054208 -705.054208 -705.054208 -705.054208 -705.054208 -705.054208 -705.054208 -705.054208 -705.054208 -705.054208 -705.054208 -705.054208 -705.054208 -705.054208
C          1.44168        0.03872        1.15973
O          1.07005        1.35299        1.56264
C          2.43583        0.04547        0.00499
O          2.49897        1.01798       -0.75721
C          3.23974       -1.24451       -0.22254
O          3.02344       -1.65702       -1.58454
C          4.75689       -1.07317       -0.00505
O          5.27033       -0.14761       -0.99881
C          5.18055       -0.59801        1.38062
O          4.59786        0.70278        1.65889
C          4.71317       -1.62903        2.43191
O          5.10721       -2.81167        2.27493
O          3.92852       -1.13042        3.29398
H          0.53185       -0.47493        0.82391
H          1.84774       -0.48933        2.02025
H          1.30582        1.93423        0.81354
H          2.83822       -2.03833        0.41561
H          3.61481       -1.06947       -2.10184
H          5.24122       -2.02845       -0.23825
H          5.18676        0.73589       -0.57953
H          6.26567       -0.46939        1.44215
H          4.15417        0.55219        2.53290
22 22 22 22 22 22 22 22 22 22 22 22 22 22 22 22 22 22 22 22 22 22 22 22 22 22 22 22 22 22 22 22 22 22 22 22 22 22 22 22 22 22 22 22 22 22 22 22 22 22 22 22 22 22 22 22 22 22 22 22 22
C(O)C(=O)C(O)C(O)C(O)C(=O)[O-]
InChI=1S/C6H10O7/c7-1-2(8)3(9)4(10)5(11)6(12)13/h3-5,7,9-11H,1H2,(H,12,13)/p-1/t3-,4+,5-/m0/s1
