18
metacyc CPD-1076  -26.335008112 -26.335008112 -26.335008112 -26.335008112 -26.335008112 -26.335008112 -26.335008112 -26.335008112 -26.335008112 -26.335008112 -26.335008112 -26.335008112 -26.335008112 -26.335008112 -26.335008112
C          1.74523       -0.24208       -1.14052
O          2.42395        0.09529        0.06315
C          3.05951       -0.94852        0.68270
C          4.16026       -0.60079        1.46729
C          4.88608       -1.58502        2.14531
C          4.51430       -2.93571        2.06747
C          3.38886       -3.26689        1.29631
C          2.66543       -2.28436        0.61094
C          5.30136       -4.00782        2.79721
O          6.31697       -3.63122        3.46310
O          4.88747       -5.20676        2.68492
H          1.39947        0.68944       -1.59925
H          0.86107       -0.85638       -0.94485
H          2.41954       -0.73418       -1.85005
H          4.46757        0.43736        1.54474
H          5.75226       -1.30758        2.74387
H          3.07782       -4.30946        1.23973
H          1.79430       -2.59808        0.04869
18 18 18 18 18 18 18 18 18 18 18 18 18 18 18 18 18 18 18 18 18 18 18 18 18 18 18 18 18 18 18 18 18 18 18 18 18 18 18 18 18 18 18 18 18 18 18 18 18
COC1(C=CC(=CC=1)C([O-])=O)
InChI=1S/C8H8O3/c1-11-7-4-2-6(3-5-7)8(9)10/h2-5H,1H3,(H,9,10)/p-1
