18
metacyc CPD-12607  -217.6466592 -217.6466592 -217.6466592 -217.6466592 -217.6466592 -217.6466592 -217.6466592 -217.6466592 -217.6466592 -217.6466592 -217.6466592 -217.6466592 -217.6466592 -217.6466592 -217.6466592
C          1.09721       -0.03161        0.61523
O          0.10238       -0.54775       -0.27386
C          2.49372       -0.02997       -0.01585
N          3.43195        0.63049        0.89207
C          2.95088       -1.46407       -0.28795
O          2.13503       -2.37818       -0.43589
N          4.29394       -1.63273       -0.47770
C          4.93019       -2.92124       -0.76976
C          6.47778       -2.85922       -0.74503
O          6.95023       -1.72808       -0.41027
O          7.07295       -3.92653       -1.05562
H          1.06869       -0.62673        1.53469
H          0.79238        0.98955        0.86813
H          0.38971       -1.46457       -0.48507
H          2.47173        0.49135       -0.97961
H          4.96830       -0.90996       -0.22267
H          4.58807       -3.23940       -1.76013
H          4.58056       -3.64958       -0.03034
18 18 18 18 18 18 18 18 18 18 18 18 18 18 18 18 18 18 18 18 18 18 18 18 18 18 18 18 18 18 18 18 18 18 18 18 18 18 18 18 18 18 18 18 18 18 18 18 18
C(O)C([N+])C(=O)NCC([O-])=O
InChI=1S/C5H10N2O4/c6-3(2-8)5(11)7-1-4(9)10/h3,8H,1-2,6H2,(H,7,11)(H,9,10)/t3-/m0/s1
