23
metacyc CPD-17551  -166.154857376 -166.154857376 -166.154857376 -166.154857376 -166.154857376 -166.154857376 -166.154857376 -166.154857376 -166.154857376 -166.154857376 -166.154857376 -166.154857376 -166.154857376 -166.154857376 -166.154857376
C          1.06685       -0.15494        0.14497
O          0.44207        0.80251        0.69967
O          0.54751       -1.21600       -0.34015
C          2.60747       -0.06029        0.03408
O          3.16869        0.92011        0.52031
C          3.33900       -1.17485       -0.63960
C          4.66222       -1.20463       -0.88650
C          5.63200       -0.13882       -0.56883
O          5.97600        0.88789       -1.52405
C          6.95096       -0.13677       -1.31721
C          7.17623       -1.02271       -2.50415
O          7.56008       -0.21994       -3.62000
C          5.95336       -1.85834       -2.88469
C          5.24008       -2.38277       -1.64218
H          2.69624       -1.99197       -0.95521
H          5.66395        0.14278        0.48028
H          7.85908        0.12993       -0.79876
H          8.01178       -1.69752       -2.28464
H          6.90727        0.50881       -3.64411
H          6.26588       -2.69098       -3.52587
H          5.25806       -1.26377       -3.49348
H          5.93882       -2.92979       -0.99726
H          4.46072       -3.09293       -1.94240
23 23 23 23 23 23 23 23 23 23 23 23 23 23 23 23 23 23 23 23 23 23 23 23 23 23 23 23 23 23 23 23 23 23 23 23 23 23 23 23 23 23 23 23 23 23 23 23 23 23 23 23 23 23 23 23 23 23 23 23 23 23 23 23
C(=O)([O-])C(=O)C=C1(C2(OC(C(O)CC1)2))
InChI=1S/C9H10O5/c10-5-2-1-4(7-8(5)14-7)3-6(11)9(12)13/h3,5,7-8,10H,1-2H2,(H,12,13)/p-1/b4-3+/t5-,7-,8+/m1/s1
