18
metacyc CPD-9164  -454.974502944 -454.974502944 -454.974502944 -454.974502944 -454.974502944 -454.974502944 -454.974502944 -454.974502944 -454.974502944 -454.974502944 -454.974502944 -454.974502944 -454.974502944 -454.974502944 -454.974502944
C          0.89205       -0.02831       -0.04218
C          2.41898       -0.03116       -0.08065
C          2.96368       -1.12624        0.81572
C          3.31003       -0.92465        2.09958
C          3.81257       -2.02439        2.97943
C          4.15199       -1.71455        4.46049
O          3.94160       -0.51494        4.84974
O          4.60276       -2.65864        5.19054
O          3.95312       -3.18451        2.59178
C          2.92666       -0.18999       -1.53760
O          2.19898       -0.86797       -2.32260
O          4.00139        0.42710       -1.80494
H          0.52648        0.18994        0.96734
H          0.47088       -0.99364       -0.34594
H          0.48887        0.73757       -0.71439
H          2.76697        0.94582        0.28127
H          3.06492       -2.11646        0.37446
H          3.21870        0.04904        2.56823
18 18 18 18 18 18 18 18 18 18 18 18 18 18 18 18 18 18 18 18 18 18 18 18 18 18 18 18 18 18 18 18 18 18 18 18 18 18 18 18 18 18 18 18 18 18 18 18 18
CC(C=CC(C(=O)[O-])=O)C([O-])=O
InChI=1S/C7H8O5/c1-4(6(9)10)2-3-5(8)7(11)12/h2-4H,1H3,(H,9,10)(H,11,12)/p-2/b3-2+
