24
metacyc CPD-10725  -394.7878052 -394.7878052 -394.7878052 -394.7878052 -394.7878052 -394.7878052 -394.7878052 -394.7878052 -394.7878052 -394.7878052 -394.7878052 -394.7878052 -394.7878052 -394.7878052 -394.7878052
C          1.00842        0.08298        0.05530
O          0.59753       -0.82596        1.08434
C          2.54380        0.01940       -0.12513
O          3.14533        0.29983        1.14625
O          3.01999       -1.27501       -0.49510
C          2.68468       -1.69293       -1.82269
C          3.17032       -0.70499       -2.88793
O          4.60502       -0.73811       -2.96124
C          2.68982        0.71376       -2.54827
O          3.25723        1.65825       -3.46005
C          3.07290        1.08309       -1.11172
O          4.52171        1.12793       -1.01490
H          0.69738        1.09045        0.35438
H          0.46892       -0.19244       -0.85420
H          0.23689       -0.29709        1.81864
H          2.79192       -0.41613        1.70941
H          1.60302       -1.84694       -1.89133
H          3.16661       -2.66454       -1.97235
H          2.80905       -1.00204       -3.87774
H          4.93905       -0.34050       -2.12779
H          1.60267        0.76931       -2.66840
H          4.22640        1.54286       -3.37621
H          2.72566        2.08896       -0.85184
H          4.70019        1.03291       -0.05294
24 24 24 24 24 24 24 24 24 24 24 24 24 24 24 24 24 24 24 24 24 24 24 24 24 24 24 24 24 24 24 24 24 24 24 24 24 24 24 24 24 24 24 24 24 24 24 24 24 24 24 24 24 24 24 24 24 24 24 24 24 24 24 24 24 24 24
C(O)C1(O)(OCC(O)C(O)C(O)1)
InChI=1S/C6H12O6/c7-2-6(11)5(10)4(9)3(8)1-12-6/h3-5,7-11H,1-2H2/t3-,4-,5+,6+/m1/s1
