20
metacyc CPD-15236  -521.623614624 -521.623614624 -521.623614624 -521.623614624 -521.623614624 -521.623614624 -521.623614624 -521.623614624 -521.623614624 -521.623614624 -521.623614624 -521.623614624 -521.623614624 -521.623614624 -521.623614624
C          0.65691        1.19669       -0.24877
C         -0.80765        1.25382        0.22185
C         -1.49683       -0.03514       -0.21444
C         -0.85755       -1.32442        0.29007
C          0.61565       -1.29795       -0.12165
C          1.37959       -0.04625        0.29565
O          1.37518       -0.03340        1.72626
O          1.14340       -2.20559       -0.76266
O         -1.05675       -1.50574        1.68081
O         -2.46735       -0.03237       -0.97385
O         -1.42515        2.43188       -0.26966
O          0.75817        1.32577       -1.67092
H          1.15660        2.08832        0.15113
H         -0.85918        1.30570        1.31497
H         -1.34201       -2.16149       -0.22497
H          2.40591       -0.11162       -0.08262
H          1.58128        0.87014        2.03408
H         -0.36059       -1.02814        2.17371
H         -1.42798        2.36841       -1.24373
H          0.51884        0.50116       -2.13179
20 20 20 20 20 20 20 20 20 20 20 20 20 20 20 20 20 20 20 20 20 20 20 20 20 20 20 20 20 20 20 20 20 20 20 20 20 20 20 20 20 20 20 20 20 20 20 20 20 20 20 20 20 20 20
C1(C(C(C(C(C1O)=O)O)=O)O)O
InChI=1S/C6H8O6/c7-1-2(8)4(10)6(12)5(11)3(1)9/h1-3,6-9,12H/t1-,2-,3+,6-
