23
metacyc CPD-6366  -224.312955272 -224.312955272 -224.312955272 -224.312955272 -224.312955272 -224.312955272 -224.312955272 -224.312955272 -224.312955272 -224.312955272 -224.312955272 -224.312955272 -224.312955272 -224.312955272 -224.312955272
C          1.33485       -0.44380       -0.37266
O          2.61018        0.02833        0.05406
C          3.16131       -0.68443        1.08650
C          3.98290        0.03098        1.95786
C          4.56184       -0.60128        3.06201
C          4.35079       -1.96844        3.29936
C          3.56866       -2.68731        2.37984
C          2.97205       -2.04989        1.28904
O          3.27781       -4.02454        2.50121
C          4.22281       -4.70561        3.31002
C          4.62216       -4.00689        4.64098
N          4.84177       -2.64362        4.44277
O          5.37986       -1.89132        5.47921
O          4.73060       -4.67011        5.67696
O          3.73142       -6.03093        3.55507
H          0.93631        0.27446       -1.09522
H          0.63294       -0.50011        0.46741
H          1.41315       -1.40811       -0.88477
H          4.15281        1.09187        1.80186
H          5.17108       -0.02517        3.75378
H          2.37677       -2.65301        0.61442
H          5.14607       -4.83519        2.72993
H          3.44935       -5.99123        4.48907
23 23 23 23 23 23 23 23 23 23 23 23 23 23 23 23 23 23 23 23 23 23 23 23 23 23 23 23 23 23 23 23 23 23 23 23 23 23 23 23 23 23 23 23 23 23 23 23 23 23 23 23 23 23 23 23 23 23 23 23 23 23 23 23
COC1(C=CC2(=C(C=1)OC(C(N([O-])2)=O)O))
InChI=1S/C9H8NO5/c1-14-5-2-3-6-7(4-5)15-9(12)8(11)10(6)13/h2-4,9,12H,1H3/q-1
