20
metacyc CPD-13911  -1045.50444704 -1045.50444704 -1045.50444704 -1045.50444704 -1045.50444704 -1045.50444704 -1045.50444704 -1045.50444704 -1045.50444704 -1045.50444704 -1045.50444704 -1045.50444704 -1045.50444704 -1045.50444704 -1045.50444704
C          2.97181        1.54770        0.20638
O          3.70836        1.91942       -0.76183
O          2.50596        2.20938        1.17073
C          2.57497        0.05369        0.12744
O          3.07156       -0.52283       -1.12107
C          3.12992       -0.74619        1.30664
O          2.64934       -2.10323        1.14452
C          4.67050       -0.74754        1.34852
O          5.15219       -1.54248        2.45129
C          6.01203       -2.55213        2.12488
O          6.41070       -2.88549        1.01377
C          6.53171       -3.28275        3.39346
O          6.15804       -2.84967        4.53705
O          7.32454       -4.27172        3.21377
H          1.48403       -0.03175        0.08051
H          3.59609        0.23258       -1.49030
H          2.73345       -0.38321        2.26094
H          2.83940       -2.30558        0.20723
H          5.04357        0.26921        1.50990
H          5.07535       -1.10298        0.39563
20 20 20 20 20 20 20 20 20 20 20 20 20 20 20 20 20 20 20 20 20 20 20 20 20 20 20 20 20 20 20 20 20 20 20 20 20 20 20 20 20 20 20 20 20 20 20 20 20 20 20 20 20 20 20
C(=O)([O-])C(O)C(O)COC(=O)C(=O)[O-]
InChI=1S/C6H8O8/c7-2(3(8)4(9)10)1-14-6(13)5(11)12/h2-3,7-8H,1H2,(H,9,10)(H,11,12)/p-2
