19
metacyc CPD-667  -196.638309856 -196.638309856 -196.638309856 -196.638309856 -196.638309856 -196.638309856 -196.638309856 -196.638309856 -196.638309856 -196.638309856 -196.638309856 -196.638309856 -196.638309856 -196.638309856 -196.638309856
C          4.29105        1.40278        0.70730
C          3.55022        0.41564        1.55922
O          3.25580       -0.69961        0.84527
C          2.52160       -1.73073        1.53622
C          3.48303       -2.63862        2.30029
C          2.74623       -3.73576        3.06435
C          1.96494       -4.72497        2.16683
O          2.40036       -4.87964        0.98852
O          0.92607       -5.22069        2.69623
N          3.72538       -4.53028        3.81967
O          3.26459        0.62259        2.73102
H          4.39909        1.03551       -0.31758
H          5.28745        1.56585        1.12509
H          3.73006        2.34039        0.67760
H          1.97685       -2.28635        0.76713
H          1.77104       -1.28551        2.20037
H          4.07057       -2.03020        3.00029
H          4.21271       -3.05947        1.59592
H          2.05000       -3.27926        3.77790
19 19 19 19 19 19 19 19 19 19 19 19 19 19 19 19 19 19 19 19 19 19 19 19 19 19 19 19 19 19 19 19 19 19 19 19 19 19 19 19 19 19 19 19 19 19 19 19 19 19 19 19
CC(OCCC(C([O-])=O)[N+])=O
InChI=1S/C6H11NO4/c1-4(8)11-3-2-5(7)6(9)10/h5H,2-3,7H2,1H3,(H,9,10)/t5-/m0/s1
