23
metacyc CPD-16564  -245.00064704 -245.00064704 -245.00064704 -245.00064704 -245.00064704 -245.00064704 -245.00064704 -245.00064704 -245.00064704 -245.00064704 -245.00064704 -245.00064704 -245.00064704 -245.00064704 -245.00064704
C          2.97965       -1.32670       -0.28449
C          2.48827        0.05960        0.12483
O          2.99680        0.36295        1.42767
C          2.91969        1.14847       -0.86529
H          2.55887        0.87861       -1.86616
C          2.45838        2.57916       -0.52452
O          2.56532        2.92032        0.85667
C          3.47067        3.40466       -1.29652
O          3.16234        3.47251       -2.69948
C          4.75050        2.58785       -1.05837
O          4.36008        1.20712       -0.96187
O          5.68132        2.75617       -2.11372
H          2.63763       -2.07624        0.43725
H          4.07250       -1.37737       -0.29270
H          2.60872       -1.60157       -1.27629
H          1.39527        0.04747        0.19607
H          3.95790        0.17916        1.39905
H          1.42640        2.74361       -0.84493
H          2.67646        2.09508        1.37868
H          3.58281        4.43197       -0.93341
H          3.11367        2.56754       -3.05657
H          5.22911        2.86200       -0.11229
H          5.19484        3.18685       -2.83985
23 23 23 23 23 23 23 23 23 23 23 23 23 23 23 23 23 23 23 23 23 23 23 23 23 23 23 23 23 23 23 23 23 23 23 23 23 23 23 23 23 23 23 23 23 23 23 23 23 23 23 23 23 23 23 23 23 23 23 23 23 23 23 23
CC(O)[CH]1(C(O)C(O)C(O1)O)
InChI=1S/C6H12O5/c1-2(7)5-3(8)4(9)6(10)11-5/h2-10H,1H3/t2-,3-,4+,5-,6+/m0/s1
