22
metacyc CPD-18773  -333.83638104 -333.83638104 -333.83638104 -333.83638104 -333.83638104 -333.83638104 -333.83638104 -333.83638104 -333.83638104 -333.83638104 -333.83638104 -333.83638104 -333.83638104 -333.83638104 -333.83638104
C          0.94334       -0.04372        0.00712
O          0.39597       -1.13493        0.74347
C          2.49285       -0.07568        0.01899
O          2.87356       -0.07475        1.42137
C          3.04079        1.21883       -0.60846
C          3.86782        1.10473       -1.85803
O          4.26539        2.10147       -2.46737
C          4.25124       -0.21535       -2.39418
O          5.03270       -0.25509       -3.53805
C          3.85960       -1.33989       -1.79626
O          4.23436       -2.56619       -2.32108
C          3.01650       -1.41386       -0.56398
H          0.57318        0.86818        0.48868
H          0.55163       -0.08162       -1.01415
H          0.92514       -1.21182        1.56109
H          2.62880        0.78273        1.81387
H          3.66021        1.76023        0.11771
H          2.20818        1.88578       -0.86920
H          5.19140        0.68834       -3.76434
H          4.78066       -2.37223       -3.11050
H          3.60014       -1.94434        0.20030
H          2.17212       -2.07398       -0.79832
22 22 22 22 22 22 22 22 22 22 22 22 22 22 22 22 22 22 22 22 22 22 22 22 22 22 22 22 22 22 22 22 22 22 22 22 22 22 22 22 22 22 22 22 22 22 22 22 22 22 22 22 22 22 22 22 22 22 22 22 22
C(O)C1(O)(CC(=O)C(O)=C(O)C1)
InChI=1S/C7H10O5/c8-3-7(12)1-4(9)6(11)5(10)2-7/h8-9,11-12H,1-3H2/t7-/m1/s1
