13
metacyc CPD-12925  -214.411247312 -214.411247312 -214.411247312 -214.411247312 -214.411247312 -214.411247312 -214.411247312 -214.411247312 -214.411247312 -214.411247312 -214.411247312 -214.411247312 -214.411247312 -214.411247312 -214.411247312
C         -0.60020        1.15918        0.00093
O         -1.23979        2.35526        0.00429
N          0.74442        1.24601       -0.00158
C          1.34135        0.04030       -0.00458
O          2.70269        0.07484       -0.00728
C          0.65745       -1.17624       -0.00502
O          1.32807       -2.36635       -0.00786
N         -0.68643       -1.24374       -0.00260
C         -1.30681       -0.03802        0.00041
H         -0.48515        2.97045        0.00417
H          2.85588        1.03783       -0.00652
H          2.27153       -2.12389       -0.00889
H         -2.39025       -0.05553        0.00246
13 13 13 13 13 13 13 13 13 13 13 13 13 13 13 13 13 13 13 13 13 13 13 13 13 13 13 13 13 13 13 13 13 13
C1(O)(=NC(O)=C(O)N=C1)
InChI=1S/C4H4N2O3/c7-2-1-5-3(8)4(9)6-2/h1H,(H,5,8)(H2,6,7,9)
