22
metacyc CPD-16413  -77.138579592 -77.138579592 -77.138579592 -77.138579592 -77.138579592 -77.138579592 -77.138579592 -77.138579592 -77.138579592 -77.138579592 -77.138579592 -77.138579592 -77.138579592 -77.138579592 -77.138579592
C          0.98208        0.03447        0.16488
C          2.50054        0.09364        0.04704
O          3.07520       -0.40433        1.25295
C          3.02095       -0.69789       -1.17291
O          2.49104       -0.17831       -2.39067
C          4.55172       -0.69729       -1.25166
C          5.10607       -1.41588       -2.48119
O          6.53021       -1.34820       -2.43101
C          4.65793       -2.86792       -2.51685
O          5.30999       -3.78146       -2.01296
H          0.64721        0.57771        1.05637
H          0.63747       -0.99930        0.27795
H          0.49137        0.47278       -0.70913
H          2.79563        1.14534       -0.04846
H          2.69319       -1.28080        1.43636
H          2.67470       -1.73447       -1.08306
H          2.72911        0.76558       -2.44440
H          4.97501       -1.14762       -0.34492
H          4.91877        0.33749       -1.27360
H          4.78983       -0.93583       -3.41211
H          6.81818       -2.04898       -1.81178
H          3.67698       -3.05557       -2.98712
22 22 22 22 22 22 22 22 22 22 22 22 22 22 22 22 22 22 22 22 22 22 22 22 22 22 22 22 22 22 22 22 22 22 22 22 22 22 22 22 22 22 22 22 22 22 22 22 22 22 22 22 22 22 22 22 22 22 22 22 22
CC(O)C(O)CC(O)C=O
InChI=1S/C6H12O4/c1-4(8)6(10)2-5(9)3-7/h3-6,8-10H,2H2,1H3/t4-,5+,6+/m0/s1
