15
metacyc CPD-88  -542.51317184 -542.51317184 -542.51317184 -542.51317184 -542.51317184 -542.51317184 -542.51317184 -542.51317184 -542.51317184 -542.51317184 -542.51317184 -542.51317184 -542.51317184 -542.51317184 -542.51317184
C          1.26418       -0.70919        0.08221
C          2.43830       -0.05177        0.08206
C          2.98659        0.73326       -1.09649
C          1.98486        1.40149       -2.04172
C          2.45209        1.72789       -3.47717
O          3.61298        1.31544       -3.80882
O          1.65987        2.37977       -4.23759
O          0.84934        1.77187       -1.73302
C          3.34104       -0.11719        1.34877
O          2.77220       -0.48249        2.42136
O          4.55715        0.17641        1.17003
H          0.60415       -0.70329       -0.77644
H          0.94175       -1.26048        0.96194
H          3.62107        0.04999       -1.67187
H          3.61764        1.55214       -0.73439
15 15 15 15 15 15 15 15 15 15 15 15 15 15 15 15 15 15 15 15 15 15 15 15 15 15 15 15 15 15 15 15 15 15 15 15 15 15 15 15
C=C(CC(C([O-])=O)=O)C(=O)[O-]
InChI=1S/C6H6O5/c1-3(5(8)9)2-4(7)6(10)11/h1-2H2,(H,8,9)(H,10,11)/p-2
