21
metacyc CPD-827  -545.89472248 -545.89472248 -545.89472248 -545.89472248 -545.89472248 -545.89472248 -545.89472248 -545.89472248 -545.89472248 -545.89472248 -545.89472248 -545.89472248 -545.89472248 -545.89472248 -545.89472248
C          0.84100       -1.66860        1.46881
O          0.44298       -0.92190        0.52713
O          0.16765       -2.38735        2.26330
C          2.34341       -1.64068        1.73516
C          3.12718       -1.39464        0.44540
O          2.80505       -0.07858       -0.04926
C          4.66065       -1.42051        0.61546
O          5.12228       -0.42641        1.54178
C          5.21439       -2.77719        1.04298
O          4.57853       -3.83298        1.00141
C          6.67991       -2.78633        1.47466
O          7.10882       -4.08442        1.87098
H          2.63521       -2.59628        2.18596
H          2.51572       -0.84829        2.47199
H          2.83049       -2.11730       -0.32467
H          1.80947       -0.08199       -0.07889
H          5.12347       -1.17622       -0.34863
H          4.32902       -0.04599        1.96149
H          6.82560       -2.10977        2.31984
H          7.30019       -2.46591        0.63310
H          6.28626       -4.58336        2.05344
21 21 21 21 21 21 21 21 21 21 21 21 21 21 21 21 21 21 21 21 21 21 21 21 21 21 21 21 21 21 21 21 21 21 21 21 21 21 21 21 21 21 21 21 21 21 21 21 21 21 21 21 21 21 21 21 21 21
C(=O)([O-])CC(O)C(O)C(=O)CO
InChI=1S/C6H10O6/c7-2-4(9)6(12)3(8)1-5(10)11/h3,6-8,12H,1-2H2,(H,10,11)/p-1/t3-,6+/m1/s1
