23
metacyc CPD-15619  -236.2978852 -236.2978852 -236.2978852 -236.2978852 -236.2978852 -236.2978852 -236.2978852 -236.2978852 -236.2978852 -236.2978852 -236.2978852 -236.2978852 -236.2978852 -236.2978852 -236.2978852
C          2.72892       -1.51985       -0.47770
C          2.35037       -0.09052       -0.10172
C          2.96755        0.34487        1.24298
O          4.40327        0.25927        1.11807
C          2.62044        1.79594        1.65968
O          3.22137        2.71014        0.71247
C          1.12055        2.11148        1.79145
C          0.45222        1.34117        2.91624
H         -0.62002        1.57262        3.06490
O          0.99969        0.48590        3.60182
O          0.91215        3.50348        2.07986
O          2.79013        0.79787       -1.13649
H          2.28829       -2.23499        0.22363
H          3.81455       -1.66411       -0.48166
H          2.37947       -1.75591       -1.48810
H          1.25927       -0.02268       -0.06091
H          2.67194       -0.36270        2.02241
H          4.69902        1.13570        0.80017
H          3.12792        2.01652        2.60603
H          2.80023        2.53067       -0.15664
H          0.58507        1.90831        0.86208
H          1.70048        3.82868        2.54894
H          3.73893        0.60361       -1.27191
23 23 23 23 23 23 23 23 23 23 23 23 23 23 23 23 23 23 23 23 23 23 23 23 23 23 23 23 23 23 23 23 23 23 23 23 23 23 23 23 23 23 23 23 23 23 23 23 23 23 23 23 23 23 23 23 23 23 23 23 23 23 23 23
CC(C(O)C(O)C([CH]=O)O)O
InChI=1S/C6H12O5/c1-3(8)5(10)6(11)4(9)2-7/h2-6,8-11H,1H3/t3-,4+,5+,6-/m0/s1
