21
metacyc CPD-18928  -305.7378504 -305.7378504 -305.7378504 -305.7378504 -305.7378504 -305.7378504 -305.7378504 -305.7378504 -305.7378504 -305.7378504 -305.7378504 -305.7378504 -305.7378504 -305.7378504 -305.7378504
C          1.10379       -0.37403        0.08175
C          2.56624       -0.16284       -0.00886
C          3.52977       -1.27359       -0.02554
O          3.27793       -2.44773        0.17647
N          4.75057       -0.73444       -0.21568
C          4.69069        0.61039       -0.13309
O          5.63828        1.36372       -0.00634
C          3.26627        0.97861       -0.10016
C          2.79310        2.39172       -0.15655
C          3.20319        3.15026       -1.41562
C          2.63108        2.64465       -2.73985
O          1.84648        1.65937       -2.67332
O          3.01650        3.29251       -3.75399
H          0.85724       -1.43472        0.19696
H          0.59732       -0.01585       -0.81891
H          0.69067        0.15053        0.94945
H          5.60632       -1.25570       -0.18496
H          3.19340        2.92313        0.71643
H          1.70127        2.42798       -0.05507
H          4.29617        3.17608       -1.50378
H          2.87552        4.19259       -1.30776
21 21 21 21 21 21 21 21 21 21 21 21 21 21 21 21 21 21 21 21 21 21 21 21 21 21 21 21 21 21 21 21 21 21 21 21 21 21 21 21 21 21 21 21 21 21 21 21 21 21 21 21 21 21 21 21 21 21
CC1(C(=O)NC(=O)C(CCC([O-])=O)=1)
InChI=1S/C8H9NO4/c1-4-5(2-3-6(10)11)8(13)9-7(4)12/h2-3H2,1H3,(H,10,11)(H,9,12,13)/p-1
