20
metacyc CPD-1117  -586.22852432 -586.22852432 -586.22852432 -586.22852432 -586.22852432 -586.22852432 -586.22852432 -586.22852432 -586.22852432 -586.22852432 -586.22852432 -586.22852432 -586.22852432 -586.22852432 -586.22852432
C          1.11264        0.14767        0.09185
O          0.53656       -0.53969       -0.80345
O          0.64070        0.84662        1.03435
C          2.66305        0.12902       -0.01828
O          3.03890       -0.50306       -1.27122
C          3.16932        1.57819        0.04522
O          2.86112        2.18177        1.31665
C          4.70201        1.65603       -0.18232
O          5.08785        1.12971       -1.45771
C          5.22233        3.10094       -0.08427
O          5.01984        3.68740        1.19895
H          3.06239       -0.47617        0.80261
H          2.16212       -0.84320       -1.59299
H          2.67377        2.16597       -0.73845
H          1.91642        1.92071        1.49305
H          5.20006        1.06386        0.59619
H          4.50444        0.34979       -1.61019
H          4.73976        3.73324       -0.83789
H          6.29638        3.12686       -0.29713
H          4.13783        3.36596        1.49901
20 20 20 20 20 20 20 20 20 20 20 20 20 20 20 20 20 20 20 20 20 20 20 20 20 20 20 20 20 20 20 20 20 20 20 20 20 20 20 20 20 20 20 20 20 20 20 20 20 20 20 20 20 20 20
C(=O)([O-])C(O)C(O)C(O)CO
InChI=1S/C5H10O6/c6-1-2(7)3(8)4(9)5(10)11/h2-4,6-9H,1H2,(H,10,11)/p-1/t2-,3-,4+/m0/s1
