16
metacyc CPD-19469  -74.869433216 -74.869433216 -74.869433216 -74.869433216 -74.869433216 -74.869433216 -74.869433216 -74.869433216 -74.869433216 -74.869433216 -74.869433216 -74.869433216 -74.869433216 -74.869433216 -74.869433216
C          1.74517        0.46893       -1.17926
C          2.60215        0.10370        0.02318
C          3.09220       -1.30870       -0.06794
C          4.38876       -1.65331       -0.09440
C          4.79657       -3.08733       -0.18962
C          6.30048       -3.44035       -0.21841
O          7.09796       -2.44639       -0.14790
O          6.62918       -4.66572       -0.30882
O          3.97697       -4.00465       -0.24833
H          1.38990        1.50062       -1.09174
H          0.86879       -0.18395       -1.25444
H          2.31401        0.38405       -2.11139
H          2.00878        0.21254        0.93814
H          3.43916        0.80765        0.09777
H          2.33737       -2.09246       -0.10837
H          5.19466       -0.92882       -0.05180
16 16 16 16 16 16 16 16 16 16 16 16 16 16 16 16 16 16 16 16 16 16 16 16 16 16 16 16 16 16 16 16 16 16 16 16 16 16 16 16 16 16 16
CCC=CC(C(=O)[O-])=O
InChI=1S/C6H8O3/c1-2-3-4-5(7)6(8)9/h3-4H,2H2,1H3,(H,8,9)/p-1/b4-3-
