17
metacyc CPD-15812  -19.3762516952 -19.3762516952 -19.3762516952 -19.3762516952 -19.3762516952 -19.3762516952 -19.3762516952 -19.3762516952 -19.3762516952 -19.3762516952 -19.3762516952 -19.3762516952 -19.3762516952 -19.3762516952 -19.3762516952
C          1.03546        0.13515        0.06765
C          2.55802        0.06282        0.12022
C          3.02479       -1.25617       -0.48444
O          2.71108       -2.35326       -0.03194
C          3.86662       -1.19907       -1.68829
C          4.17374        0.00409       -2.17520
C          3.75343        1.31129       -1.59424
O          4.93267        2.07392       -1.41995
O          3.10584        1.28142       -0.33997
H          0.57646       -0.75092        0.52091
H          0.67908        0.20936       -0.96508
H          0.67253        1.02053        0.60037
H          2.85083        0.00731        1.17535
H          4.18701       -2.13111       -2.13587
H          4.77826        0.06162       -3.07752
H          3.11572        1.84133       -2.30876
H          5.39798        1.64182       -0.68414
17 17 17 17 17 17 17 17 17 17 17 17 17 17 17 17 17 17 17 17 17 17 17 17 17 17 17 17 17 17 17 17 17 17 17 17 17 17 17 17 17 17 17 17 17 17
CC1(C(=O)C=CC(O)O1)
InChI=1S/C6H8O3/c1-4-5(7)2-3-6(8)9-4/h2-4,6,8H,1H3/t4-,6-/m0/s1
