16
metacyc CPD-13712  -37.38075556 -37.38075556 -37.38075556 -37.38075556 -37.38075556 -37.38075556 -37.38075556 -37.38075556 -37.38075556 -37.38075556 -37.38075556 -37.38075556 -37.38075556 -37.38075556 -37.38075556
C          1.14222       -0.04035       -0.03284
C          2.63223        0.03394        0.01785
C          3.28210        1.00325        0.67929
C          4.72686        1.08708        0.73642
C          5.46673        2.01791        1.37156
O          4.91859        3.07602        2.09361
C          7.05309        1.92653        1.30957
O          7.51772        0.95174        0.64398
O          7.67721        2.83589        1.92967
H          0.82805       -0.90625       -0.62372
H          0.72344        0.85544       -0.50224
H          0.72345       -0.15084        0.97243
H          3.18920       -0.73780       -0.50879
H          2.69699        1.75655        1.19332
H          5.26823        0.30387        0.20198
H          3.95851        3.01366        2.05125
16 16 16 16 16 16 16 16 16 16 16 16 16 16 16 16 16 16 16 16 16 16 16 16 16 16 16 16 16 16 16 16 16 16 16 16 16 16 16 16 16 16 16
CC=CC=C(O)C(=O)[O-]
InChI=1S/C6H8O3/c1-2-3-4-5(7)6(8)9/h2-4,7H,1H3,(H,8,9)/p-1/b3-2-,5-4-
