15
metacyc CPD-13337  -529.83565184 -529.83565184 -529.83565184 -529.83565184 -529.83565184 -529.83565184 -529.83565184 -529.83565184 -529.83565184 -529.83565184 -529.83565184 -529.83565184 -529.83565184 -529.83565184 -529.83565184
C          0.84528       -1.08945       -0.14126
O          0.24485       -0.59923        0.85490
O          0.36712       -1.50617       -1.23862
C          2.37680       -1.16857       -0.06506
C          3.10839       -0.82808        1.01138
C          4.61325       -0.86640        1.06718
C          5.17048       -1.72236        2.19513
O          4.50781       -2.32045        3.04213
C          6.70356       -1.81623        2.30257
O          7.36338       -1.12870        1.45432
O          7.20803       -2.55019        3.21442
H          2.86670       -1.52439       -0.96646
H          2.59359       -0.48111        1.90622
H          4.97452        0.15772        1.21626
H          5.02214       -1.24050        0.12168
15 15 15 15 15 15 15 15 15 15 15 15 15 15 15 15 15 15 15 15 15 15 15 15 15 15 15 15 15 15 15 15 15 15 15 15 15 15 15 15
C([O-])(=O)C=CCC(=O)C(=O)[O-]
InChI=1S/C6H6O5/c7-4(6(10)11)2-1-3-5(8)9/h1,3H,2H2,(H,8,9)(H,10,11)/p-2/b3-1+
