17
metacyc CPD-9140  -21.3189176224 -21.3189176224 -21.3189176224 -21.3189176224 -21.3189176224 -21.3189176224 -21.3189176224 -21.3189176224 -21.3189176224 -21.3189176224 -21.3189176224 -21.3189176224 -21.3189176224 -21.3189176224 -21.3189176224
C          1.05419       -0.10093       -0.00602
C          2.54810       -0.01393       -0.09052
C          3.28430        1.17221       -0.16152
C          4.67641        1.16337       -0.25722
C          5.34781       -0.06074       -0.26889
C          4.68300       -1.29626       -0.19080
C          3.27627       -1.22057       -0.10174
O          5.30471       -2.40737       -0.20067
N          2.63353        2.46902       -0.13850
O          1.94046        2.75107        0.85067
O          2.83253        3.22515       -1.10275
H          0.55506        0.86434       -0.11712
H          0.75902       -0.52609        0.95914
H          0.67394       -0.74477       -0.80671
H          5.24834        2.08318       -0.31882
H          6.43576       -0.06622       -0.34053
H          2.73193       -2.16535       -0.04283
17 17 17 17 17 17 17 17 17 17 17 17 17 17 17 17 17 17 17 17 17 17 17 17 17 17 17 17 17 17 17 17 17 17 17 17 17 17 17 17 17 17 17 17 17 17
CC1(=C(C=CC(=C1)[O-])[N+]([O-])=O)
InChI=1S/C7H7NO3/c1-5-4-6(9)2-3-7(5)8(10)11/h2-4,9H,1H3/p-1
