22
metacyc CPD-20857  -44.27496248 -44.27496248 -44.27496248 -44.27496248 -44.27496248 -44.27496248 -44.27496248 -44.27496248 -44.27496248 -44.27496248 -44.27496248 -44.27496248 -44.27496248 -44.27496248 -44.27496248
C          1.29969        0.62193        0.69380
O          2.45653        0.08119        0.06093
C          2.96584        0.83765       -0.96660
C          2.88800        2.23905       -0.94347
C          3.37931        3.00465       -2.00080
C          3.98190        2.39853       -3.10469
C          4.10116        0.99828       -3.10091
C          3.61052        0.20882       -2.04538
O          3.83130       -1.12895       -2.25287
C          3.42104       -2.05503       -1.26383
C          4.48654        3.23081       -4.26563
O          5.05638        2.61585       -5.22025
O          4.29678        4.48772       -4.19678
H          0.84704       -0.16880        1.29957
H          0.55286        0.94916       -0.03854
H          1.56937        1.43718        1.37257
H          2.45306        2.77429       -0.10773
H          3.29574        4.09115       -1.97284
H          4.58636        0.51664       -3.95003
H          3.72042       -3.05192       -1.60333
H          2.33175       -2.06650       -1.15928
H          3.92625       -1.87648       -0.30955
22 22 22 22 22 22 22 22 22 22 22 22 22 22 22 22 22 22 22 22 22 22 22 22 22 22 22 22 22 22 22 22 22 22 22 22 22 22 22 22 22 22 22 22 22 22 22 22 22 22 22 22 22 22 22 22 22 22 22 22 22
COC1(=CC=C(C=C1OC)C(=O)[O-])
InChI=1S/C9H10O4/c1-12-7-4-3-6(9(10)11)5-8(7)13-2/h3-5H,1-2H3,(H,10,11)/p-1
