12
metacyc CPD-321  -427.63651472 -427.63651472 -427.63651472 -427.63651472 -427.63651472 -427.63651472 -427.63651472 -427.63651472 -427.63651472 -427.63651472 -427.63651472 -427.63651472 -427.63651472 -427.63651472 -427.63651472
C          1.05603        0.05891        0.05799
C          0.19199        1.19531        0.49853
C          0.44999        2.41839       -0.36079
O         -0.39019        2.65832       -1.26372
O          1.53675        2.99764       -0.06599
N          2.35939        0.09130        0.17292
O          3.01512       -0.95537       -0.14275
O          3.09936        1.15170        0.68430
H          0.59809       -0.84730       -0.36191
H          0.38744        1.41559        1.55356
H         -0.85557        0.88321        0.41525
H          2.53804        1.93739        0.47479
12 12 12 12 12 12 12 12 12 12 12 12 12 12 12 12 12 12 12 12 12 12 12 12 12 12 12 12 12 12 12
C(CC([O-])=O)=[N+]([O-])O
InChI=1S/C3H5NO4/c5-3(6)1-2-4(7)8/h2H,1H2,(H,5,6)(H,7,8)/p-1
