24
metacyc CPD-13397  -47.339098144 -47.339098144 -47.339098144 -47.339098144 -47.339098144 -47.339098144 -47.339098144 -47.339098144 -47.339098144 -47.339098144 -47.339098144 -47.339098144 -47.339098144 -47.339098144 -47.339098144
C          1.03872        0.08600        0.32111
C          2.53789        0.04788        0.05379
N          2.99151       -1.34102        0.03226
C          2.88397        0.68947       -1.28989
O          2.03112        1.04123       -2.10585
N          4.21423        0.92769       -1.48242
C          4.81846        1.58927       -2.66751
C          4.48781        3.09517       -2.75554
O          3.09085        3.32798       -3.02281
C          4.84397        3.87155       -1.48991
C          6.37223        1.43924       -2.66856
O          6.82159        0.79397       -1.66758
O          6.99360        1.95150       -3.63909
H          0.79118       -0.39702        1.27231
H          0.47087       -0.41316       -0.47277
H          0.68565        1.12261        0.37076
H          3.06121        0.59508        0.84579
H          4.92580        0.46664       -0.91096
H          4.41677        1.07154       -3.54709
H          5.01963        3.54867       -3.59861
H          2.62113        2.48543       -2.84423
H          4.32551        3.46993       -0.61271
H          4.52574        4.91576       -1.58195
H          5.92055        3.85466       -1.29728
24 24 24 24 24 24 24 24 24 24 24 24 24 24 24 24 24 24 24 24 24 24 24 24 24 24 24 24 24 24 24 24 24 24 24 24 24 24 24 24 24 24 24 24 24 24 24 24 24 24 24 24 24 24 24 24 24 24 24 24 24 24 24 24 24 24 24
CC([N+])C(=O)NC(C(O)C)C([O-])=O
InChI=1S/C7H14N2O4/c1-3(8)6(11)9-5(4(2)10)7(12)13/h3-5,10H,8H2,1-2H3,(H,9,11)(H,12,13)/t3-,4+,5-/m0/s1
