15
metacyc CPD-16  -113.944051888 -113.944051888 -113.944051888 -113.944051888 -113.944051888 -113.944051888 -113.944051888 -113.944051888 -113.944051888 -113.944051888 -113.944051888 -113.944051888 -113.944051888 -113.944051888 -113.944051888
C         -0.67858        1.21599       -0.00247
C          0.71320        1.19428       -0.00106
C          1.41166       -0.00947       -0.00026
C          0.69696       -1.20393       -0.00070
O          1.33334       -2.41111        0.00025
C         -0.69474       -1.20694       -0.00209
C         -1.37183        0.00924       -0.00302
O         -2.73545        0.06170       -0.00453
O          1.44045        2.34898       -0.00037
H         -1.23333        2.14804       -0.00319
H          2.49621        0.00493        0.00074
H          2.29241       -2.25249        0.00152
H         -1.22454       -2.15339       -0.00237
H         -3.07763       -0.84819       -0.00535
H          0.82355        3.10026       -0.00022
15 15 15 15 15 15 15 15 15 15 15 15 15 15 15 15 15 15 15 15 15 15 15 15 15 15 15 15 15 15 15 15 15 15 15 15 15 15 15 15
C1(C(=CC(O)=CC=1O)O)
InChI=1S/C6H6O3/c7-4-1-5(8)3-6(9)2-4/h1-3,7-9H
