22
metacyc CPD-330  -473.07990104 -473.07990104 -473.07990104 -473.07990104 -473.07990104 -473.07990104 -473.07990104 -473.07990104 -473.07990104 -473.07990104 -473.07990104 -473.07990104 -473.07990104 -473.07990104 -473.07990104
C          3.37349        1.20480       -0.11767
O          3.36820        1.41018       -1.53352
C          2.53239       -0.03077        0.21559
O          1.19561        0.20739       -0.26108
C          3.09635       -1.30516       -0.43463
H          3.05321       -1.21434       -1.52823
C          4.48677       -1.71033        0.02658
O          4.64076       -1.54253        1.44116
C          4.52719       -3.18271       -0.36231
O          5.04843       -3.36499       -1.66921
C          3.06069       -3.57328       -0.21189
O          2.61205       -4.70743       -0.21923
O          2.28717       -2.44837       -0.10285
H          2.95691        2.10075        0.35452
H          4.41086        1.09419        0.20853
H          2.67238        2.07022       -1.71358
H          2.45238       -0.15193        1.30073
H          1.23111        0.19875       -1.23441
H          5.26675       -1.12074       -0.46389
H          3.95517       -2.05835        1.90977
H          5.12627       -3.76036        0.34827
H          4.35775       -3.15800       -2.32318
22 22 22 22 22 22 22 22 22 22 22 22 22 22 22 22 22 22 22 22 22 22 22 22 22 22 22 22 22 22 22 22 22 22 22 22 22 22 22 22 22 22 22 22 22 22 22 22 22 22 22 22 22 22 22 22 22 22 22 22 22
C(O)C(O)[CH]1(C(O)C(O)C(=O)O1)
InChI=1S/C6H10O6/c7-1-2(8)5-3(9)4(10)6(11)12-5/h2-5,7-10H,1H2/t2-,3-,4-,5+/m0/s1
