19
metacyc CPD-10450  -90.303677848 -90.303677848 -90.303677848 -90.303677848 -90.303677848 -90.303677848 -90.303677848 -90.303677848 -90.303677848 -90.303677848 -90.303677848 -90.303677848 -90.303677848 -90.303677848 -90.303677848
C          0.89124       -0.07405        0.04886
C          2.39913       -0.05063        0.06217
C          3.11771        1.15871        0.06724
N          2.44862        2.42139        0.07117
C          4.51874        1.17391        0.06295
C          5.22941       -0.03147        0.05255
N          6.69762       -0.00905        0.05255
O          7.25593        1.09524        0.04520
O          7.28545       -1.09906        0.06360
C          4.55450       -1.25349        0.04509
C          3.15247       -1.24460        0.05427
N          2.49019       -2.54183        0.04150
O          1.74950       -2.81029        0.99470
O          2.74539       -3.28731       -0.91261
H          0.44984        0.92529        0.00226
H          0.50713       -0.54469        0.95904
H          0.53084       -0.62120       -0.82844
H          5.04126        2.13046        0.06589
H          5.09691       -2.19859        0.03276
19 19 19 19 19 19 19 19 19 19 19 19 19 19 19 19 19 19 19 19 19 19 19 19 19 19 19 19 19 19 19 19 19 19 19 19 19 19 19 19 19 19 19 19 19 19 19 19 19 19 19 19
CC1(C([N+])=CC([N+](=O)[O-])=CC([N+]([O-])=O)=1)
InChI=1S/C7H7N3O4/c1-4-6(8)2-5(9(11)12)3-7(4)10(13)14/h2-3H,8H2,1H3/p+1
