22
metacyc CPD-18312  -83.79577128 -83.79577128 -83.79577128 -83.79577128 -83.79577128 -83.79577128 -83.79577128 -83.79577128 -83.79577128 -83.79577128 -83.79577128 -83.79577128 -83.79577128 -83.79577128 -83.79577128
C          1.04308        0.25223       -0.16836
O          0.55652        1.24661        0.44282
O          0.46575       -0.67659       -0.79290
C          2.56165        0.15191       -0.16253
C          3.30957        1.06134        0.47654
C          4.78740        0.99328        0.44265
O          5.42194        0.15112       -0.17922
N          5.38717        1.99499        1.17567
C          6.83974        2.04778        1.26724
C          7.38469        3.24392        2.04473
N          8.84504        3.13293        2.11277
C          7.06903        4.62805        1.46513
N          6.32881        4.70674        0.32244
O          7.44374        5.67302        1.99937
H          3.01014       -0.67588       -0.70338
H          2.83443        1.88082        1.00527
H          4.80287        2.56427        1.77710
H          7.23369        2.03175        0.24276
H          7.15963        1.11161        1.74303
H          6.97865        3.22754        3.06283
H          5.88923        3.90796       -0.12245
H          6.08857        5.62842       -0.01888
22 22 22 22 22 22 22 22 22 22 22 22 22 22 22 22 22 22 22 22 22 22 22 22 22 22 22 22 22 22 22 22 22 22 22 22 22 22 22 22 22 22 22 22 22 22 22 22 22 22 22 22 22 22 22 22 22 22 22 22 22
C([O-])(=O)C=CC(=O)NCC([N+])C(N)=O
InChI=1S/C7H11N3O4/c8-4(7(9)14)3-10-5(11)1-2-6(12)13/h1-2,4H,3,8H2,(H2,9,14)(H,10,11)(H,12,13)/b2-1+/t4-/m0/s1
