22
metacyc CPD-14779  -474.08406104 -474.08406104 -474.08406104 -474.08406104 -474.08406104 -474.08406104 -474.08406104 -474.08406104 -474.08406104 -474.08406104 -474.08406104 -474.08406104 -474.08406104 -474.08406104 -474.08406104
C          0.98926        0.06246        0.21305
O          0.25569       -0.31712       -0.94453
C          2.50486       -0.03315       -0.00862
O          2.84139       -1.38963       -0.38978
C          2.62826       -1.77410       -1.67750
C          3.11330       -0.81093       -2.75926
C          2.68801        0.62474       -2.43416
C          3.09821        0.97090       -1.00101
O          4.54445        0.88517       -0.93691
O          3.30599        1.55452       -3.33668
O          4.53607       -0.90244       -2.92052
O          2.16585       -2.88531       -1.92115
H          0.68511       -0.60484        1.02758
H          0.70180        1.08271        0.48264
H          0.10800       -1.28328       -0.89972
H          2.98730        0.12912        0.96284
H          2.66911       -1.10995       -3.71448
H          1.60994        0.74320       -2.56539
H          2.82678        2.00255       -0.75147
H          4.81070        0.83126       -0.00035
H          4.26746        1.39033       -3.27065
H          4.93568       -0.52606       -2.10996
22 22 22 22 22 22 22 22 22 22 22 22 22 22 22 22 22 22 22 22 22 22 22 22 22 22 22 22 22 22 22 22 22 22 22 22 22 22 22 22 22 22 22 22 22 22 22 22 22 22 22 22 22 22 22 22 22 22 22 22 22
C(O)C1(OC(C(C(C1O)O)O)=O)
InChI=1S/C6H10O6/c7-1-2-3(8)4(9)5(10)6(11)12-2/h2-5,7-10H,1H2/t2-,3+,4+,5-/m1/s1
