16
metacyc CPD-240  -739.16711312 -739.16711312 -739.16711312 -739.16711312 -739.16711312 -739.16711312 -739.16711312 -739.16711312 -739.16711312 -739.16711312 -739.16711312 -739.16711312 -739.16711312 -739.16711312 -739.16711312
C          1.04211        0.05364       -0.15968
O          0.26645       -0.73150        0.45671
O          0.73015        1.00999       -0.94009
C          2.54933       -0.12830        0.01571
C          3.17670       -1.02541        0.80630
C          4.62989       -1.09451        0.89161
C          5.40328       -1.93197        1.61589
C          4.93699       -3.04082        2.54639
O          5.42922       -4.19721        2.35447
O          4.02845       -2.73858        3.38441
C          6.91297       -1.76950        1.50380
O          7.36737       -1.49695        0.34048
O          7.59245       -1.77619        2.57659
H          3.15075        0.55518       -0.57961
H          2.59840       -1.71563        1.41615
H          5.15077       -0.36539        0.27114
16 16 16 16 16 16 16 16 16 16 16 16 16 16 16 16 16 16 16 16 16 16 16 16 16 16 16 16 16 16 16 16 16 16 16 16 16 16 16 16 16 16 16
C([O-])(=O)C=CC=C(C([O-])=O)C([O-])=O
InChI=1S/C7H6O6/c8-5(9)3-1-2-4(6(10)11)7(12)13/h1-3H,(H,8,9)(H,10,11)(H,12,13)/p-3/b3-1-
