19
metacyc CPD-311  -222.50871824 -222.50871824 -222.50871824 -222.50871824 -222.50871824 -222.50871824 -222.50871824 -222.50871824 -222.50871824 -222.50871824 -222.50871824 -222.50871824 -222.50871824 -222.50871824 -222.50871824
C          1.00796       -0.24979       -0.25324
C          2.53936       -0.29149       -0.13321
C          2.82323       -1.76204        0.34592
O          2.42223       -2.72552       -0.38221
O          3.28460       -1.86103        1.53666
N          3.11842        0.24634       -1.40327
C          4.57398        0.51707       -1.30536
C          5.08822        1.22896       -2.57579
C          6.58908        1.55178       -2.77371
O          7.30393        1.76508       -1.75018
O          6.96317        1.65089       -3.99115
H          0.52575       -0.63746        0.65187
H          0.65095       -0.84641       -1.10171
H          0.65319        0.77619       -0.40394
H          2.80509        0.37649        0.70006
H          5.13716       -0.41580       -1.18127
H          4.81447        1.14387       -0.43766
H          4.56979        2.19451       -2.66302
H          4.77269        0.64125       -3.44933
19 19 19 19 19 19 19 19 19 19 19 19 19 19 19 19 19 19 19 19 19 19 19 19 19 19 19 19 19 19 19 19 19 19 19 19 19 19 19 19 19 19 19 19 19 19 19 19 19 19 19 19
CC(C(=O)[O-])[N+]CCC(=O)[O-]
InChI=1S/C6H11NO4/c1-4(6(10)11)7-3-2-5(8)9/h4,7H,2-3H2,1H3,(H,8,9)(H,10,11)/p-1/t4-/m1/s1
