19
metacyc CPD-5061  -639.48891968 -639.48891968 -639.48891968 -639.48891968 -639.48891968 -639.48891968 -639.48891968 -639.48891968 -639.48891968 -639.48891968 -639.48891968 -639.48891968 -639.48891968 -639.48891968 -639.48891968
C          1.04118       -0.04423       -0.01613
C          0.49357       -1.44946       -0.27726
C         -1.02441       -1.48297       -0.28387
O         -1.74133       -0.49690       -0.10769
C         -1.72072       -2.83367       -0.52737
O         -0.94300       -3.82771       -0.70860
O         -2.99354       -2.86737       -0.53131
C          2.57115       -0.00589       -0.00778
C          3.10955        1.38970        0.25256
O          2.40418        2.38323        0.43407
C          4.63582        1.58388        0.29316
O          5.32815        0.53121        0.09983
O          5.09299        2.75158        0.51125
H          0.66045        0.32451        0.94481
H          0.66181        0.64488       -0.78133
H          0.84662       -2.13502        0.50111
H          0.84698       -1.81029       -1.24960
H          2.95598       -0.34454       -0.97619
H          2.95449       -0.67071        0.77427
19 19 19 19 19 19 19 19 19 19 19 19 19 19 19 19 19 19 19 19 19 19 19 19 19 19 19 19 19 19 19 19 19 19 19 19 19 19 19 19 19 19 19 19 19 19 19 19 19 19 19 19
C(CC(=O)C(=O)[O-])CC(=O)C(=O)[O-]
InChI=1S/C7H8O6/c8-4(6(10)11)2-1-3-5(9)7(12)13/h1-3H2,(H,10,11)(H,12,13)/p-2
