13
metacyc CPD-20942  -406.92107048 -406.92107048 -406.92107048 -406.92107048 -406.92107048 -406.92107048 -406.92107048 -406.92107048 -406.92107048 -406.92107048 -406.92107048 -406.92107048 -406.92107048 -406.92107048 -406.92107048
C          0.88512       -0.06244        0.01723
C          0.24392       -1.04076        0.96890
H          0.77826       -1.98863        1.14937
O         -0.88072       -0.86673        1.44257
C          2.39890       -0.07931        0.12804
O          2.80265        0.26506        1.47530
C          2.96534       -1.47628       -0.25165
O          2.64569       -1.91977       -1.38445
O          3.65063       -2.00109        0.67928
H          0.50142        0.93461        0.25984
H          0.56404       -0.32905       -0.99483
H          2.83945        0.66646       -0.54202
H          3.38461       -0.50002        1.71678
13 13 13 13 13 13 13 13 13 13 13 13 13 13 13 13 13 13 13 13 13 13 13 13 13 13 13 13 13 13 13 13 13 13
C([CH]=O)C(O)C([O-])=O
InChI=1S/C4H6O4/c5-2-1-3(6)4(7)8/h2-3,6H,1H2,(H,7,8)/p-1
