24
metacyc CPD-15374  -387.884272144 -387.884272144 -387.884272144 -387.884272144 -387.884272144 -387.884272144 -387.884272144 -387.884272144 -387.884272144 -387.884272144 -387.884272144 -387.884272144 -387.884272144 -387.884272144 -387.884272144
C          3.01529       -0.21972        1.39736
H          2.92884        0.60263        2.12765
O          3.39918       -1.33848        1.74517
C          2.56736        0.11131       -0.01524
C          3.07938       -0.92177       -1.04480
C          4.62593       -0.95653       -1.12271
C          5.20139       -1.93128       -2.17603
C          6.73795       -1.87553       -2.20550
O          7.23248       -2.80223       -3.17269
O          4.83753       -3.29671       -1.93839
O          5.10529        0.37214       -1.36296
O          2.49719       -2.19680       -0.74379
O          1.13787        0.13028       -0.01576
H          2.92078        1.11852       -0.25715
H          2.68208       -0.63216       -2.02377
H          5.02120       -1.27149       -0.15106
H          4.82630       -1.67312       -3.17281
H          7.15589       -2.16565       -1.23578
H          7.10769       -0.88003       -2.46678
H          6.65519       -3.58933       -3.10721
H          5.03687       -3.51278       -1.01024
H          4.88110        0.61771       -2.28154
H          2.83387       -2.47417        0.13344
H          0.85722       -0.80604       -0.07290
24 24 24 24 24 24 24 24 24 24 24 24 24 24 24 24 24 24 24 24 24 24 24 24 24 24 24 24 24 24 24 24 24 24 24 24 24 24 24 24 24 24 24 24 24 24 24 24 24 24 24 24 24 24 24 24 24 24 24 24 24 24 24 24 24 24 24
[CH](=O)C(C(C(C(CO)O)O)O)O
InChI=1S/C6H12O6/c7-1-3(9)5(11)6(12)4(10)2-8/h1,3-6,8-12H,2H2/t3-,4+,5+,6+/m0/s1
