24
metacyc CPD-11611  -397.59112704 -397.59112704 -397.59112704 -397.59112704 -397.59112704 -397.59112704 -397.59112704 -397.59112704 -397.59112704 -397.59112704 -397.59112704 -397.59112704 -397.59112704 -397.59112704 -397.59112704
C          0.89108        0.13109        0.06333
O          0.55446        1.49680        0.30320
C          2.41413       -0.02703       -0.09764
C          2.84464       -1.47588       -0.37181
C          2.55494       -1.87402       -1.82525
C          3.10561       -0.84228       -2.80776
C          2.58370        0.55465       -2.43735
O          2.94340        0.87438       -1.09331
O          3.16340        1.53223       -3.28794
O          4.55063       -0.85982       -2.74977
O          3.13485       -3.16426       -2.06520
O          2.18843       -2.38452        0.51264
H          0.35183       -0.18629       -0.83318
H          0.52137       -0.46066        0.90616
H          1.17703        2.03875       -0.21191
H          2.86385        0.29432        0.85051
H          3.92183       -1.57338       -0.18496
H          1.47498       -1.99241       -1.96703
H          2.84515       -1.10391       -3.83877
H          1.49916        0.62141       -2.56184
H          4.04719        1.20688       -3.53536
H          4.82153       -0.27314       -2.01459
H          4.05809       -3.00250       -2.35039
H          2.23877       -3.26597        0.09037
24 24 24 24 24 24 24 24 24 24 24 24 24 24 24 24 24 24 24 24 24 24 24 24 24 24 24 24 24 24 24 24 24 24 24 24 24 24 24 24 24 24 24 24 24 24 24 24 24 24 24 24 24 24 24 24 24 24 24 24 24 24 24 24 24 24 24
C(O)C1(C(C(C(C(O1)O)O)O)O)
InChI=1S/C6H12O6/c7-1-2-3(8)4(9)5(10)6(11)12-2/h2-11H,1H2/t2-,3-,4+,5+,6-/m0/s1
