22
metacyc CPD-355  -275.167270304 -275.167270304 -275.167270304 -275.167270304 -275.167270304 -275.167270304 -275.167270304 -275.167270304 -275.167270304 -275.167270304 -275.167270304 -275.167270304 -275.167270304 -275.167270304 -275.167270304
C          2.76369        0.72201        1.33332
O          2.25669        2.05838        1.22443
C          2.38453       -0.07844        0.08127
O          0.94462       -0.08970        0.01186
C          2.93604        0.51996       -1.23773
O          2.40404        1.83749       -1.43924
C          4.46969        0.52167       -1.30546
O          4.94506       -0.82219       -1.15698
C          4.99159        1.13691       -2.61314
O          6.41578        1.02115       -2.66356
H          2.32209        0.27515        2.23022
H          3.84525        0.77806        1.47535
H          1.28982        1.97016        1.35530
H          2.71416       -1.11607        0.19904
H          0.69740        0.61582       -0.62061
H          2.54508       -0.09010       -2.06195
H          2.52341        2.32703       -0.59457
H          4.89441        1.09927       -0.47835
H          5.34589       -1.08680       -2.00782
H          4.72204        2.19382       -2.70466
H          4.60166        0.59641       -3.48261
H          6.77866        1.45060       -1.86884
22 22 22 22 22 22 22 22 22 22 22 22 22 22 22 22 22 22 22 22 22 22 22 22 22 22 22 22 22 22 22 22 22 22 22 22 22 22 22 22 22 22 22 22 22 22 22 22 22 22 22 22 22 22 22 22 22 22 22 22 22
C(O)C(O)C(O)C(O)CO
InChI=1S/C5H12O5/c6-1-3(8)5(10)4(9)2-7/h3-10H,1-2H2/t3-,4-/m1/s1
