5
metacyc CPD-14554  -79.151895288 -79.151895288 -79.151895288 -79.151895288 -79.151895288 -79.151895288 -79.151895288 -79.151895288 -79.151895288 -79.151895288 -79.151895288 -79.151895288 -79.151895288 -79.151895288 -79.151895288
N          0.94977        0.03899        0.03785
H          0.54305        0.59712        0.79310
H          0.77985        0.57021       -0.82021
O          2.37332        0.25039        0.24327
H          2.71292       -0.66529        0.30840
5 5 5 5 5 5 5 5 5 5
[NH2]O
InChI=1S/H2NO/c1-2/h1H2
