21
metacyc CPD-9138  -466.24150868 -466.24150868 -466.24150868 -466.24150868 -466.24150868 -466.24150868 -466.24150868 -466.24150868 -466.24150868 -466.24150868 -466.24150868 -466.24150868 -466.24150868 -466.24150868 -466.24150868
C          0.99145       -0.08439        0.07591
C          2.49798       -0.02590        0.07583
C          3.22384        1.18311        0.08144
N          2.54708        2.47275        0.06560
O          1.85370        2.73018       -0.92475
O          2.75055        3.21835        1.03019
C          4.62894        1.22505        0.08801
C          5.34567        0.02456        0.07523
N          6.81435        0.05310        0.07258
O          7.36388        1.16146        0.04810
O          7.40652       -1.03317        0.09512
C          4.67540       -1.20193        0.06076
C          3.27021       -1.20952        0.06691
N          2.63004       -2.51973        0.05589
O          1.90372       -2.80114        1.01550
O          2.89029       -3.25620       -0.90260
H          0.51528        0.89809        0.07559
H          0.62873       -0.59327        0.97427
H          0.63661       -0.61551       -0.81361
H          5.14482        2.18603        0.09658
H          5.22599       -2.14305        0.04655
21 21 21 21 21 21 21 21 21 21 21 21 21 21 21 21 21 21 21 21 21 21 21 21 21 21 21 21 21 21 21 21 21 21 21 21 21 21 21 21 21 21 21 21 21 21 21 21 21 21 21 21 21 21 21 21 21 21
CC1(C([N+](=O)[O-])=CC([N+](=O)[O-])=CC([N+]([O-])=O)=1)
InChI=1S/C7H5N3O6/c1-4-6(9(13)14)2-5(8(11)12)3-7(4)10(15)16/h2-3H,1H3
