20
metacyc CPD-10453  -329.0063296 -329.0063296 -329.0063296 -329.0063296 -329.0063296 -329.0063296 -329.0063296 -329.0063296 -329.0063296 -329.0063296 -329.0063296 -329.0063296 -329.0063296 -329.0063296 -329.0063296
C          0.93033       -0.06711        0.11192
C          2.43561       -0.00685        0.11022
C          3.16211        1.19816        0.11399
N          2.49107        2.48890        0.09372
O          1.78957        2.74280       -0.89192
O          2.70920        3.24438        1.04847
C          4.56861        1.23609        0.11824
C          5.30400        0.04992        0.11208
N          6.68044        0.13210        0.09043
O          7.24028       -0.80211        0.67600
C          4.61750       -1.16792        0.08947
C          3.21201       -1.18356        0.09887
N          2.58110       -2.49647        0.08517
O          1.85397       -2.78390        1.04254
O          2.84407       -3.22997       -0.87540
H          0.45306        0.91489        0.11432
H          0.56919       -0.57859        1.00940
H          0.57508       -0.59689       -0.77833
H          5.08970        2.19417        0.12336
H          5.17303       -2.10564        0.06575
20 20 20 20 20 20 20 20 20 20 20 20 20 20 20 20 20 20 20 20 20 20 20 20 20 20 20 20 20 20 20 20 20 20 20 20 20 20 20 20 20 20 20 20 20 20 20 20 20 20 20 20 20 20 20
CC1(C([N+](=O)[O-])=CC(N=O)=CC([N+]([O-])=O)=1)
InChI=1S/C7H5N3O5/c1-4-6(9(12)13)2-5(8-11)3-7(4)10(14)15/h2-3H,1H3
