27
metacyc CPD-1127  -60.244587568 -60.244587568 -60.244587568 -60.244587568 -60.244587568 -60.244587568 -60.244587568 -60.244587568 -60.244587568 -60.244587568 -60.244587568 -60.244587568 -60.244587568 -60.244587568 -60.244587568
C          3.22300       -2.43035       -3.12105
C          3.56667       -1.18619       -2.31746
O          3.17576       -0.03221       -3.06147
C          2.86381       -1.25040       -0.97003
O          1.68204       -0.98201       -0.80156
C          3.69498       -1.65471        0.23453
C          3.17314       -1.19015        1.57802
N          3.55624       -2.14844        2.58831
C          4.74772       -2.78375        2.53892
N          5.16744       -3.49765        3.53697
C          6.43624       -3.98394        3.49417
O          7.06199       -4.28322        4.51744
N          7.08316       -4.09436        2.30242
C          6.50146       -3.76646        1.11590
O          6.70969       -4.37547        0.07351
C          5.61381       -2.55624        1.28561
N          4.80578       -2.30351        0.06228
H          3.78937       -2.44369       -4.05785
H          2.16108       -2.43980       -3.39508
H          3.43687       -3.34518       -2.56098
H          4.64602       -1.10453       -2.17007
H          2.28497       -0.19298       -3.42256
H          2.08931       -1.07493        1.58020
H          3.62348       -0.21480        1.79177
H          2.95926       -2.30660        3.39118
H          8.08852       -4.15322        2.35831
H          6.27583       -1.69351        1.44996
27 27 27 27 27 27 27 27 27 27 27 27 27 27 27 27 27 27 27 27 27 27 27 27 27 27 27 27 27 27 27 27 27 27 27 27 27 27 27 27 27 27 27 27 27 27 27 27 27 27 27 27 27 27 27 27 27 27 27 27 27 27 27 27 27 27 27 27 27 27 27 27 27 27 27 27
CC(O)C(=O)C1(CNC2(=NC(=O)NC(=O)C(N=1)2))
InChI=1S/C9H10N4O4/c1-3(14)6(15)4-2-10-7-5(11-4)8(16)13-9(17)12-7/h3,5,14H,2H2,1H3,(H2,10,12,13,16,17)
