20
metacyc CPD-15147  -165.871424848 -165.871424848 -165.871424848 -165.871424848 -165.871424848 -165.871424848 -165.871424848 -165.871424848 -165.871424848 -165.871424848 -165.871424848 -165.871424848 -165.871424848 -165.871424848 -165.871424848
C          1.04975        0.18485        0.16460
O          0.45752       -0.60735        0.94776
O          0.57708        0.99428       -0.68209
C          2.57914        0.16129        0.20703
C          3.24827       -0.61582        1.07102
C          4.70939       -0.67388        1.11130
C          5.44413       -1.56913        0.31990
O          4.84504       -2.41971       -0.57215
C          6.83304       -1.63743        0.41348
C          7.49430       -0.79520        1.30207
O          8.85186       -0.83798        1.44011
C          6.78952        0.11554        2.08157
C          5.39696        0.17650        1.98586
H          3.09401        0.80770       -0.49691
H          2.71537       -1.25202        1.77476
H          3.89554       -2.18696       -0.59198
H          7.36882       -2.34572       -0.20791
H          9.18537       -1.54381        0.86234
H          7.31700        0.77227        2.76610
H          4.84447        0.88519        2.59854
20 20 20 20 20 20 20 20 20 20 20 20 20 20 20 20 20 20 20 20 20 20 20 20 20 20 20 20 20 20 20 20 20 20 20 20 20 20 20 20 20 20 20 20 20 20 20 20 20 20 20 20 20 20 20
C(=O)([O-])C=CC1(C(O)=CC(O)=CC=1)
InChI=1S/C9H8O4/c10-7-3-1-6(8(11)5-7)2-4-9(12)13/h1-5,10-11H,(H,12,13)/p-1/b4-2-
