18
metacyc CPD-8815  -94.450549032 -94.450549032 -94.450549032 -94.450549032 -94.450549032 -94.450549032 -94.450549032 -94.450549032 -94.450549032 -94.450549032 -94.450549032 -94.450549032 -94.450549032 -94.450549032 -94.450549032
C          0.94034       -0.03709        0.08536
C          2.43242        0.00693       -0.02982
C          3.12217        1.22399       -0.03824
C          4.51809        1.25613       -0.14571
C          5.26375        0.08141       -0.28134
C          4.55542       -1.13831       -0.24539
C          3.16482       -1.17945       -0.11936
C          6.76452        0.03871       -0.49675
O          7.30735        0.99873       -1.13252
O          7.36571       -1.01081       -0.09310
O          5.11911        2.47955       -0.04979
H          0.51540        0.96740        0.18437
H          0.64445       -0.61387        0.96729
H          0.50847       -0.49747       -0.80867
H          2.57472        2.15729        0.06298
H          5.11670       -2.07017       -0.32706
H          2.66576       -2.14362       -0.09384
H          4.62869        3.08593       -0.62062
18 18 18 18 18 18 18 18 18 18 18 18 18 18 18 18 18 18 18 18 18 18 18 18 18 18 18 18 18 18 18 18 18 18 18 18 18 18 18 18 18 18 18 18 18 18 18 18 18
CC1(=CC(=C(C=C1)C([O-])=O)O)
InChI=1S/C8H8O3/c1-5-2-3-6(8(10)11)7(9)4-5/h2-4,9H,1H3,(H,10,11)/p-1
