19
metacyc CPD-18135  -687.48873 -687.48873 -687.48873 -687.48873 -687.48873 -687.48873 -687.48873 -687.48873 -687.48873 -687.48873 -687.48873 -687.48873 -687.48873 -687.48873 -687.48873
C          0.99458        1.14122       -0.05247
O          0.45851        0.58722        0.94566
O          0.45078        1.68237       -1.05942
C          2.52175        1.20542       -0.07092
C          3.30107        0.69051        0.89555
C          4.76084        0.74999        0.93421
C          5.45030        1.78953        0.43330
C          6.88069        1.86130        0.50000
C          7.56781        0.87631        1.08627
C          9.12070        0.90066        1.17904
O          9.68198        1.93388        0.70320
O          9.65810       -0.10958        1.71775
O          6.89260       -0.23599        1.65927
C          5.52513       -0.33582        1.64167
O          4.95421       -1.27999        2.18686
H          2.94625        1.70623       -0.93589
H          2.82670        0.17058        1.72891
H          4.94644        2.62248       -0.04541
H          7.38861        2.71782        0.06699
19 19 19 19 19 19 19 19 19 19 19 19 19 19 19 19 19 19 19 19 19 19 19 19 19 19 19 19 19 19 19 19 19 19 19 19 19 19 19 19 19 19 19 19 19 19 19 19 19 19 19 19
C([O-])(=O)C=CC1(=CC=C(C([O-])=O)OC(=O)1)
InChI=1S/C9H6O6/c10-7(11)4-2-5-1-3-6(8(12)13)15-9(5)14/h1-4H,(H,10,11)(H,12,13)/p-2/b4-2+
