20
metacyc CPD-7100  -453.375210784 -453.375210784 -453.375210784 -453.375210784 -453.375210784 -453.375210784 -453.375210784 -453.375210784 -453.375210784 -453.375210784 -453.375210784 -453.375210784 -453.375210784 -453.375210784 -453.375210784
C          0.91423        0.09462       -0.06658
C          2.44818        0.06742       -0.02689
C          3.02760       -1.35384       -0.23696
C          4.56229       -1.41205       -0.21195
O          5.16611       -0.52063        0.45908
O          5.08509       -2.28346       -0.97251
C          2.50159       -2.33036        0.81119
O          2.96829       -2.46594        1.94376
C          1.21902       -3.14982        0.50654
O          0.72627       -3.04531       -0.66747
O          0.69874       -3.83224        1.45463
C          2.95897        1.04511       -1.09727
H          0.47831       -0.49186        0.74685
H          0.53579       -0.29209       -1.01900
H          0.54247        1.11894        0.04795
H          2.75698        0.44365        0.95677
H          2.72408       -1.71310       -1.22879
H          2.71060        0.69329       -2.10420
H          4.04229        1.18299       -1.04647
H          2.50594        2.03401       -0.96777
20 20 20 20 20 20 20 20 20 20 20 20 20 20 20 20 20 20 20 20 20 20 20 20 20 20 20 20 20 20 20 20 20 20 20 20 20 20 20 20 20 20 20 20 20 20 20 20 20 20 20 20 20 20 20
CC(C(C(=O)[O-])C(=O)C(=O)[O-])C
InChI=1S/C7H10O5/c1-3(2)4(6(9)10)5(8)7(11)12/h3-4H,1-2H3,(H,9,10)(H,11,12)/p-2/t4-/m0/s1
