13
metacyc CPD-14083  -215.424017984 -215.424017984 -215.424017984 -215.424017984 -215.424017984 -215.424017984 -215.424017984 -215.424017984 -215.424017984 -215.424017984 -215.424017984 -215.424017984 -215.424017984 -215.424017984 -215.424017984
C         -0.72305        1.18545        0.02089
C          0.61767        1.34443        0.00282
C          1.41527        0.01894       -0.01967
O          2.64466       -0.07793       -0.03202
N          0.68492       -1.15299       -0.02744
C         -0.66904       -1.21046       -0.01183
O         -1.24018       -2.45178       -0.03065
C         -1.39050       -0.09082        0.01386
O          1.27148        2.42744        0.00321
H         -1.35260        2.07014        0.03845
H          1.27095       -1.96816       -0.03207
H         -0.50284       -3.07067       -0.13241
H         -2.47186       -0.11228        0.02534
13 13 13 13 13 13 13 13 13 13 13 13 13 13 13 13 13 13 13 13 13 13 13 13 13 13 13 13 13 13 13 13 13 13
C1(=C(C(=O)NC(O)=C1)[O-])
InChI=1S/C5H5NO3/c7-3-1-2-4(8)6-5(3)9/h1-2,7H,(H2,6,8,9)/p-1
