16
metacyc CPD-21050  -373.82090256 -373.82090256 -373.82090256 -373.82090256 -373.82090256 -373.82090256 -373.82090256 -373.82090256 -373.82090256 -373.82090256 -373.82090256 -373.82090256 -373.82090256 -373.82090256 -373.82090256
C          1.14423        0.02294       -0.08546
C          0.32279       -1.26197       -0.16908
C          0.85789       -2.49291       -0.24918
C          0.10719       -3.74319       -0.33055
N         -1.32542       -3.66405       -0.32540
C          0.72716       -4.93382       -0.40803
C          0.05614       -6.27287       -0.49518
O         -1.16293       -6.43263       -0.50557
C          0.93231       -7.54753       -0.57813
O          2.19375       -7.35897       -0.56586
O          0.34895       -8.67863       -0.65174
O          0.44438        1.07588       -0.01693
O          2.39946       -0.10300       -0.09365
H         -0.75278       -1.11344       -0.15941
H          1.94528       -2.57464       -0.25450
H          1.81211       -4.98678       -0.41148
16 16 16 16 16 16 16 16 16 16 16 16 16 16 16 16 16 16 16 16 16 16 16 16 16 16 16 16 16 16 16 16 16 16 16 16 16 16 16 16 16 16 16
C(C=CC([N+])=CC(=O)C(=O)[O-])(=O)[O-]
InChI=1S/C7H7NO5/c8-4(1-2-6(10)11)3-5(9)7(12)13/h1-3H,8H2,(H,10,11)(H,12,13)/p-1/b2-1-,4-3+
