22
metacyc CPD-15205  -708.65228064 -708.65228064 -708.65228064 -708.65228064 -708.65228064 -708.65228064 -708.65228064 -708.65228064 -708.65228064 -708.65228064 -708.65228064 -708.65228064 -708.65228064 -708.65228064 -708.65228064
C          0.95805        0.11186        0.19419
O          0.25179       -0.08570       -0.83316
O          0.59704        0.46211        1.35436
C          2.48852       -0.01626        0.00092
O          2.92918       -1.34316       -0.38596
C          2.52476       -1.73638       -1.69733
O          3.14862       -3.00124       -1.96161
C          3.00663       -0.74233       -2.77553
O          4.46152       -0.83852       -2.85801
C          2.59519        0.69561       -2.43751
O          3.25930        1.61165       -3.33353
C          2.98872        1.03395       -0.98927
O          4.44947        1.05455       -0.94389
H          2.96053        0.16039        0.97535
H          1.44721       -1.90312       -1.73611
H          4.03299       -2.74891       -2.28863
H          2.64487       -1.03532       -3.76600
H          4.78313       -0.38818       -2.04583
H          1.52325        0.82986       -2.60155
H          4.20262        1.53987       -3.09019
H          2.65630        2.04443       -0.72703
H          4.68717        0.94778       -0.00326
22 22 22 22 22 22 22 22 22 22 22 22 22 22 22 22 22 22 22 22 22 22 22 22 22 22 22 22 22 22 22 22 22 22 22 22 22 22 22 22 22 22 22 22 22 22 22 22 22 22 22 22 22 22 22 22 22 22 22 22 22
C([O-])(=O)C1(OC(O)C(O)C(O)C(O)1)
InChI=1S/C6H10O7/c7-1-2(8)4(5(10)11)13-6(12)3(1)9/h1-4,6-9,12H,(H,10,11)/p-1/t1-,2-,3-,4-,6+/m0/s1
