19
metacyc CPD-18151  -309.43382864 -309.43382864 -309.43382864 -309.43382864 -309.43382864 -309.43382864 -309.43382864 -309.43382864 -309.43382864 -309.43382864 -309.43382864 -309.43382864 -309.43382864 -309.43382864 -309.43382864
C          4.16626       -0.09366        2.11054
O          3.27165       -0.33273        1.03141
C          3.55156       -1.55947        0.47295
O          2.97388       -1.98116       -0.51248
C          4.73020       -2.12855        1.16209
C          5.42997       -3.35128        0.89078
O          4.91505       -4.29016        1.57621
C          6.69347       -3.18691        0.45019
C          7.66836       -3.07217        1.57394
O          8.69785       -3.74995        1.64361
C          7.55061       -1.82884        2.44230
O          8.76534       -1.32077        2.90223
C          6.45001       -1.09550        2.66982
C          5.16417       -1.18274        2.00396
H          4.62692        0.88708        1.99606
H          3.60518       -0.13245        3.04809
H          6.89209       -2.34326       -0.21282
H          9.43059       -1.80775        2.36563
H          6.56784       -0.22456        3.31547
19 19 19 19 19 19 19 19 19 19 19 19 19 19 19 19 19 19 19 19 19 19 19 19 19 19 19 19 19 19 19 19 19 19 19 19 19 19 19 19 19 19 19 19 19 19 19 19 19 19 19 19
C1(OC(=O)C2(C([O-])=CC(=O)C(O)=CC1=2))
InChI=1S/C9H6O5/c10-5-1-4-3-14-9(13)8(4)7(12)2-6(5)11/h1-2,12H,3H2,(H,10,11)/p-1
