20
metacyc CPD-565  -430.24243544 -430.24243544 -430.24243544 -430.24243544 -430.24243544 -430.24243544 -430.24243544 -430.24243544 -430.24243544 -430.24243544 -430.24243544 -430.24243544 -430.24243544 -430.24243544 -430.24243544
C          1.27508       -0.10984        0.07393
C          2.77307       -0.17672        0.23904
O          3.28875       -0.62206        1.26186
N          3.41843        0.31148       -0.86855
C          4.76371        0.40009       -1.08435
C          5.29463        0.89638       -2.21867
C          4.61893        1.44869       -3.46985
C          3.12483        1.55480       -3.77328
O          2.28863        1.18921       -2.89395
O          2.84012        2.02095       -4.92192
C          6.85792        0.91050       -2.27017
O          7.45887        0.10615       -1.49540
O          7.37910        1.72998       -3.08351
H          0.78343       -0.50470        0.96671
H          0.96959       -0.70806       -0.78973
H          0.96424        0.92932       -0.06907
H          2.82370        0.64948       -1.64113
H          5.39188        0.03767       -0.27200
H          5.02465        0.86940       -4.31209
H          4.98453        2.47803       -3.59282
20 20 20 20 20 20 20 20 20 20 20 20 20 20 20 20 20 20 20 20 20 20 20 20 20 20 20 20 20 20 20 20 20 20 20 20 20 20 20 20 20 20 20 20 20 20 20 20 20 20 20 20 20 20 20
CC(=O)NC=C(CC([O-])=O)C([O-])=O
InChI=1S/C7H9NO5/c1-4(9)8-3-5(7(12)13)2-6(10)11/h3H,2H2,1H3,(H,8,9)(H,10,11)(H,12,13)/p-2/b5-3-
