21
metacyc CPD-15125  -556.51074384 -556.51074384 -556.51074384 -556.51074384 -556.51074384 -556.51074384 -556.51074384 -556.51074384 -556.51074384 -556.51074384 -556.51074384 -556.51074384 -556.51074384 -556.51074384 -556.51074384
C          0.97117       -0.04006       -0.01497
O          0.33038        0.74256        0.73762
O          0.52619       -0.87044       -0.86224
C          2.49636       -0.00009        0.08472
C          3.08418        0.97760        1.10792
C          4.61993        0.91010        1.14300
O          5.14640        1.23887       -0.15089
C          5.24502        1.82553        2.16301
C          6.41918        2.48357        2.06321
O          7.22465        2.35199        0.92985
C          6.94999        3.39783        3.24550
O          6.39844        3.20642        4.37159
O          7.86430        4.21922        2.93955
H          2.87680        0.24003       -0.91582
H          2.83413       -1.01653        0.32396
H          2.68092        0.75174        2.10311
H          2.75977        1.99442        0.85201
H          4.92828       -0.11646        1.37137
H          4.73622        2.09891       -0.36536
H          4.69065        1.93562        3.09506
H          6.73959        1.75853        0.32191
21 21 21 21 21 21 21 21 21 21 21 21 21 21 21 21 21 21 21 21 21 21 21 21 21 21 21 21 21 21 21 21 21 21 21 21 21 21 21 21 21 21 21 21 21 21 21 21 21 21 21 21 21 21 21 21 21 21
C(=O)([O-])CCC(O)C=C(O)C(=O)[O-]
InChI=1S/C7H10O6/c8-4(1-2-6(10)11)3-5(9)7(12)13/h3-4,8-9H,1-2H2,(H,10,11)(H,12,13)/p-2/b5-3-
