24
metacyc CPD-267  -53.893503596 -53.893503596 -53.893503596 -53.893503596 -53.893503596 -53.893503596 -53.893503596 -53.893503596 -53.893503596 -53.893503596 -53.893503596 -53.893503596 -53.893503596 -53.893503596 -53.893503596
C         -0.84434        1.03864       -0.20889
C          0.54558        1.16753       -0.12383
C          1.33113        0.00796       -0.04449
C          0.74258       -1.25640       -0.05368
C         -0.63847       -1.36266       -0.14494
C         -1.43725       -0.22709       -0.22790
O         -1.24847       -2.58460       -0.15575
C          1.21598        2.52868       -0.10903
C          1.38458        3.14886        1.28519
C          2.35064        2.29538        2.17940
O          3.40814        1.86098        1.63861
O          1.99796        2.21450        3.39594
N          1.94593        4.53921        1.12652
O          1.99003        5.12724        2.46151
H         -1.47417        1.92330       -0.25585
H          2.41347        0.09595        0.04877
H          1.38207       -2.13090        0.02311
H         -2.51581       -0.32597       -0.29216
H         -0.56325       -3.24955        0.03131
H          0.61178        3.20114       -0.73529
H          2.18268        2.45404       -0.62407
H          0.40531        3.22282        1.77665
H          1.23521        5.11393        0.67656
H          2.65111        4.56274        2.92208
24 24 24 24 24 24 24 24 24 24 24 24 24 24 24 24 24 24 24 24 24 24 24 24 24 24 24 24 24 24 24 24 24 24 24 24 24 24 24 24 24 24 24 24 24 24 24 24 24 24 24 24 24 24 24 24 24 24 24 24 24 24 24 24 24 24 24
C1(C(=CC=C(C=1)O)CC(C(=O)[O-])NO)
InChI=1S/C9H11NO4/c11-7-3-1-6(2-4-7)5-8(10-14)9(12)13/h1-4,8,10-11,14H,5H2,(H,12,13)/p-1/t8-/m0/s1
