11
metacyc CPD-10640  -89.979087312 -89.979087312 -89.979087312 -89.979087312 -89.979087312 -89.979087312 -89.979087312 -89.979087312 -89.979087312 -89.979087312 -89.979087312 -89.979087312 -89.979087312 -89.979087312 -89.979087312
C          1.18717        0.01628        0.02474
C          2.50373       -0.03286        0.22807
C          3.32296       -1.19085        0.22273
C          4.57472       -0.82844        0.46856
C          4.54068        0.62555        0.63545
O          5.52493        1.30456        0.87671
O          3.26354        1.09876        0.48291
H          0.60310       -0.87596       -0.17219
H          0.66133        0.96552        0.05303
H          2.97815       -2.19808        0.04756
H          5.46374       -1.42588        0.54232
11 11 11 11 11 11 11 11 11 11 11 11 11 11 11 11 11 11 11 11 11 11 11 11 11 11 11 11
C=C1(C=CC(=O)O1)
InChI=1S/C5H4O2/c1-4-2-3-5(6)7-4/h2-3H,1H2
