22
metacyc CPD-11878  -87.649766648 -87.649766648 -87.649766648 -87.649766648 -87.649766648 -87.649766648 -87.649766648 -87.649766648 -87.649766648 -87.649766648 -87.649766648 -87.649766648 -87.649766648 -87.649766648 -87.649766648
C          1.11743       -0.12090        0.47873
O          0.19539       -0.18649       -0.60438
C          2.58088        0.01105       -0.00502
O          3.46001        0.09756        1.11464
C          2.98848       -1.13539       -0.91252
C          3.42811       -0.86027       -2.22210
C          3.66349       -1.89278       -3.13583
C          3.46281       -3.20670       -2.73664
O          3.61097       -4.25616       -3.59957
C          3.07560       -3.49111       -1.43100
O          2.86978       -4.78478       -1.04599
C          2.85141       -2.47408       -0.51322
H          0.98040       -0.99826        1.11573
H          0.86229        0.74800        1.09281
H          0.38354       -1.00555       -1.10006
H          2.66993        0.95531       -0.55531
H          3.53128       -0.78613        1.51140
H          3.55916        0.17070       -2.54880
H          3.97813       -1.64790       -4.14533
H          3.80058       -3.89565       -4.48317
H          3.04922       -5.31107       -1.85104
H          2.53014       -2.73818        0.49029
22 22 22 22 22 22 22 22 22 22 22 22 22 22 22 22 22 22 22 22 22 22 22 22 22 22 22 22 22 22 22 22 22 22 22 22 22 22 22 22 22 22 22 22 22 22 22 22 22 22 22 22 22 22 22 22 22 22 22 22 22
C(O)C(O)C1(C=CC(O)=C(O)C=1)
InChI=1S/C8H10O4/c9-4-8(12)5-1-2-6(10)7(11)3-5/h1-3,8-12H,4H2/t8-/m0/s1
