19
metacyc CPD-10455  -90.303677848 -90.303677848 -90.303677848 -90.303677848 -90.303677848 -90.303677848 -90.303677848 -90.303677848 -90.303677848 -90.303677848 -90.303677848 -90.303677848 -90.303677848 -90.303677848 -90.303677848
C          0.82006       -0.03091        0.04518
C          2.32511        0.02594        0.04079
C          3.05333        1.23191        0.04704
N          2.38254        2.52269        0.03104
O          1.68533        2.78321       -0.95687
O          2.59069        3.27229        0.99293
C          4.45889        1.26858        0.05148
C          5.17269        0.07527        0.03563
N          6.59691        0.10165        0.03290
C          4.50362       -1.14317        0.01969
C          3.09863       -1.15532        0.02812
N          2.46336       -2.46696        0.01749
O          1.73580       -2.75032        0.97636
O          2.72315       -3.20313       -0.94068
H          0.34499        0.95207        0.04572
H          0.45991       -0.53932        0.94471
H          0.46197       -0.56228       -0.84312
H          4.98904        2.22037        0.05999
H          5.06658       -2.07554        0.00386
19 19 19 19 19 19 19 19 19 19 19 19 19 19 19 19 19 19 19 19 19 19 19 19 19 19 19 19 19 19 19 19 19 19 19 19 19 19 19 19 19 19 19 19 19 19 19 19 19 19 19 19
CC1(C([N+](=O)[O-])=CC([N+])=CC([N+]([O-])=O)=1)
InChI=1S/C7H7N3O4/c1-4-6(9(11)12)2-5(8)3-7(4)10(13)14/h2-3H,8H2,1H3/p+1
