24
metacyc CPD-15624  -397.59112704 -397.59112704 -397.59112704 -397.59112704 -397.59112704 -397.59112704 -397.59112704 -397.59112704 -397.59112704 -397.59112704 -397.59112704 -397.59112704 -397.59112704 -397.59112704 -397.59112704
C          1.37753       -0.12776       -0.18290
C          0.58145        1.04400       -0.79411
C         -0.68310        1.38200        0.00897
O         -1.42763        0.20756        0.32776
C         -0.32786        2.13153        1.29966
O         -1.54666        2.57690        1.91479
C          0.59653        3.31657        1.01664
O         -0.14185        4.30791        0.26081
C          1.81681        2.85290        0.20396
O          2.60965        3.98081       -0.14666
O          1.38056        2.22588       -1.00011
O          2.60523       -0.35012       -0.87142
H          0.79307       -1.05279       -0.22345
H          1.63117        0.05615        0.86452
H          0.27811        0.72175       -1.79931
H         -1.33944        2.01399       -0.60289
H         -2.05247        0.46701        1.03493
H          0.14207        1.44795        2.01298
H         -1.73102        3.46412        1.54374
H          0.89731        3.81354        1.94410
H         -0.06133        4.06466       -0.68402
H          2.45127        2.17248        0.78009
H          2.00927        4.74416       -0.21140
H          2.43745       -0.24816       -1.82395
24 24 24 24 24 24 24 24 24 24 24 24 24 24 24 24 24 24 24 24 24 24 24 24 24 24 24 24 24 24 24 24 24 24 24 24 24 24 24 24 24 24 24 24 24 24 24 24 24 24 24 24 24 24 24 24 24 24 24 24 24 24 24 24 24 24 24
C(C1(C(O)C(O)C(O)C(O)O1))O
InChI=1S/C6H12O6/c7-1-2-3(8)4(9)5(10)6(11)12-2/h2-11H,1H2/t2-,3+,4-,5-,6+/m0/s1
