16
metacyc CPD-13943  -320.302831376 -320.302831376 -320.302831376 -320.302831376 -320.302831376 -320.302831376 -320.302831376 -320.302831376 -320.302831376 -320.302831376 -320.302831376 -320.302831376 -320.302831376 -320.302831376 -320.302831376
C          2.63453       -1.46898        0.48029
O          3.06100       -1.61838        1.81884
C          2.43331       -0.04195       -0.04401
C          3.19244        1.08438        0.63339
C          2.25972        2.07998        1.30646
C          1.44260        1.50439        2.46147
O          0.70548        2.33829        3.05460
O          1.60313        0.27029        2.69234
O          1.75624        0.16657       -1.05772
H          1.69226       -2.01351        0.36323
H          3.38866       -1.94184       -0.15726
H          2.45599       -1.02057        2.34480
H          3.78298        1.58716       -0.14215
H          3.91431        0.67886        1.34903
H          1.56056        2.49612        0.57156
H          2.85626        2.91099        1.70062
16 16 16 16 16 16 16 16 16 16 16 16 16 16 16 16 16 16 16 16 16 16 16 16 16 16 16 16 16 16 16 16 16 16 16 16 16 16 16 16 16 16 16
C(O)C(CCC([O-])=O)=O
InChI=1S/C5H8O4/c6-3-4(7)1-2-5(8)9/h6H,1-3H2,(H,8,9)/p-1
