29
metacyc CPD-7224  -41.783001368 -41.783001368 -41.783001368 -41.783001368 -41.783001368 -41.783001368 -41.783001368 -41.783001368 -41.783001368 -41.783001368 -41.783001368 -41.783001368 -41.783001368 -41.783001368 -41.783001368
C          0.95930       -1.01776        0.97808
C          2.42058       -1.30412        0.77003
O          2.81098       -2.39372        0.36102
N          3.23499       -0.26440        1.12285
C          4.71130       -0.31687        1.09518
C          5.32395        1.12096        1.05237
O          4.86562        1.91445        1.93017
O          6.17060        1.33304        0.13945
C          5.21184       -1.03914        2.35179
C          6.73326       -1.20423        2.38656
C          7.19782       -1.94388        3.63973
N          8.64337       -2.04912        3.67658
C          9.26726       -2.74250        4.67101
O          8.72758       -3.42880        5.52700
N         10.61738       -2.59139        4.63292
H          0.37238       -1.59932        0.26182
H          0.73780        0.04107        0.82071
H          0.68083       -1.30331        1.99615
H          2.86954        0.61308        1.47734
H          5.00731       -0.87589        0.19922
H          4.75431       -2.03674        2.40767
H          4.88508       -0.50514        3.25322
H          7.22040       -0.21891        2.36671
H          7.07509       -1.74206        1.49375
H          6.77151       -2.95412        3.68313
H          6.88580       -1.40941        4.54435
H          9.15551       -1.26846        3.29558
H         11.06999       -2.25443        3.79726
H         11.14376       -3.18078        5.26290
29 29 29 29 29 29 29 29 29 29 29 29 29 29 29 29 29 29 29 29 29 29 29 29 29 29 29 29 29 29 29 29 29 29 29 29 29 29 29 29 29 29 29 29 29 29 29 29 29 29 29 29 29 29 29 29 29 29 29 29 29 29 29 29 29 29 29 29 29 29 29 29 29 29 29 29 29 29 29 29 29 29
CC(=O)NC(C([O-])=O)CCCNC(=O)N
InChI=1S/C8H15N3O4/c1-5(12)11-6(7(13)14)3-2-4-10-8(9)15/h6H,2-4H2,1H3,(H,11,12)(H,13,14)(H3,9,10,15)/p-1/t6-/m0/s1
