21
metacyc CPD-17724  -107.174971672 -107.174971672 -107.174971672 -107.174971672 -107.174971672 -107.174971672 -107.174971672 -107.174971672 -107.174971672 -107.174971672 -107.174971672 -107.174971672 -107.174971672 -107.174971672 -107.174971672
C          0.91345        0.16318        0.08792
C          2.44347        0.05933        0.05508
C          2.94188       -1.32101        0.55116
C          2.51945       -2.55574       -0.25506
N          3.07779       -2.53992       -1.61070
C          3.01755       -3.87307        0.39577
O          4.12326       -3.81372        1.00634
O          2.23464       -4.86176        0.25841
C          2.97287        0.47788       -1.32344
O          2.59167        1.82537       -1.57179
O          4.37964        0.39645       -1.40282
H          0.52956       -0.03857        1.09179
H          0.44392       -0.53292       -0.60992
H          0.57985        1.17355       -0.18850
H          2.81880        0.79696        0.78022
H          2.57571       -1.45063        1.57986
H          4.03584       -1.28214        0.64414
H          1.42723       -2.59912       -0.32351
H          2.54226       -0.13024       -2.12387
H          2.25509        1.83928       -2.48019
H          4.59076       -0.55745       -1.40536
21 21 21 21 21 21 21 21 21 21 21 21 21 21 21 21 21 21 21 21 21 21 21 21 21 21 21 21 21 21 21 21 21 21 21 21 21 21 21 21 21 21 21 21 21 21 21 21 21 21 21 21 21 21 21 21 21 21
CC(CC([N+])C([O-])=O)C(O)O
InChI=1S/C6H13NO4/c1-3(5(8)9)2-4(7)6(10)11/h3-5,8-9H,2,7H2,1H3,(H,10,11)/t3-,4+/m1/s1
