16
metacyc CPD-158  -257.752780312 -257.752780312 -257.752780312 -257.752780312 -257.752780312 -257.752780312 -257.752780312 -257.752780312 -257.752780312 -257.752780312 -257.752780312 -257.752780312 -257.752780312 -257.752780312 -257.752780312
C         -1.34852       -0.06516       -0.04477
C         -0.71696        1.18292       -0.04291
C          0.67211        1.23783       -0.06355
C          1.42826        0.06541       -0.08069
C          0.82112       -1.18217       -0.08205
C         -0.57683       -1.24169       -0.06672
N         -1.24763       -2.54744       -0.07803
O         -2.48705       -2.55583       -0.08458
O         -0.53853       -3.56316       -0.08214
O          2.79157        0.13716       -0.09994
O          1.34778        2.42581       -0.07032
H         -2.43636       -0.10739       -0.03044
H         -1.31953        2.08611       -0.02657
H          1.43707       -2.07719       -0.09736
H          2.99448        1.09440       -0.09793
H          0.69937        3.15143       -0.07791
16 16 16 16 16 16 16 16 16 16 16 16 16 16 16 16 16 16 16 16 16 16 16 16 16 16 16 16 16 16 16 16 16 16 16 16 16 16 16 16 16 16 16
C1(=CC(=C(C=C1[N+]([O-])=O)O)O)
InChI=1S/C6H5NO4/c8-5-2-1-4(7(10)11)3-6(5)9/h1-3,8-9H
