16
metacyc CPD-8179  -409.4408008 -409.4408008 -409.4408008 -409.4408008 -409.4408008 -409.4408008 -409.4408008 -409.4408008 -409.4408008 -409.4408008 -409.4408008 -409.4408008 -409.4408008 -409.4408008 -409.4408008
C         -1.38782       -0.06156       -0.03050
C         -0.75195        1.18512        0.02206
C          0.65050        1.34941        0.01909
C          1.37467        0.13193       -0.06682
C          0.77419       -1.13953       -0.11346
C         -0.61556       -1.22081       -0.09026
N         -1.26932       -2.53111       -0.12495
O         -2.51055       -2.56390       -0.10697
O         -0.54932       -3.53886       -0.17085
N          2.83768        0.13438       -0.09119
O          3.40437        0.45313       -1.15084
O          3.41102       -0.37915        0.88772
O          1.16845        2.51068        0.10456
H         -2.47348       -0.09491       -0.01572
H         -1.37198        2.08204        0.07678
H          1.39652       -2.02894       -0.15992
16 16 16 16 16 16 16 16 16 16 16 16 16 16 16 16 16 16 16 16 16 16 16 16 16 16 16 16 16 16 16 16 16 16 16 16 16 16 16 16 16 16 16
C1(=CC(=C(C=C1[N+](=O)[O-])[N+](=O)[O-])[O-])
InChI=1S/C6H4N2O5/c9-6-2-1-4(7(10)11)3-5(6)8(12)13/h1-3,9H/p-1
