15
metacyc CPD-18019  -247.08363052 -247.08363052 -247.08363052 -247.08363052 -247.08363052 -247.08363052 -247.08363052 -247.08363052 -247.08363052 -247.08363052 -247.08363052 -247.08363052 -247.08363052 -247.08363052 -247.08363052
C         -0.75968        1.20051        0.04314
O         -1.31210        2.45353        0.09146
N          0.59499        1.13260        0.02696
C          1.29020       -0.05154       -0.01742
O          2.51751       -0.01276        0.00868
N          0.58530       -1.22647       -0.08904
C         -0.71248       -1.18591       -0.07691
N         -1.36384       -2.39653       -0.14953
C         -1.49474        0.08399        0.01002
O         -2.87219        0.06359       -0.00140
H         -0.59259        3.09719        0.01457
H          1.18447        1.94861        0.07118
H         -0.69618       -3.15593       -0.03629
H         -2.14861       -2.51401        0.48162
H         -3.12894       -0.81848       -0.32159
15 15 15 15 15 15 15 15 15 15 15 15 15 15 15 15 15 15 15 15 15 15 15 15 15 15 15 15 15 15 15 15 15 15 15 15 15 15 15 15
C1(O)(NC(=O)N=C(N)C(O)=1)
InChI=1S/C4H5N3O3/c5-2-1(8)3(9)7-4(10)6-2/h8H,(H4,5,6,7,9,10)
