26
metacyc CPD-15703  -341.59983488 -341.59983488 -341.59983488 -341.59983488 -341.59983488 -341.59983488 -341.59983488 -341.59983488 -341.59983488 -341.59983488 -341.59983488 -341.59983488 -341.59983488 -341.59983488 -341.59983488
C          1.04849        0.06228        0.07497
C          0.49955        0.63106       -1.24940
C          0.98274       -0.18269       -2.48683
C          0.47629        0.37834       -3.84945
C          0.97321       -0.41835       -5.08371
C          0.40340        0.15085       -6.39462
O          0.89136       -0.60924       -7.50126
O          2.40188       -0.43057       -5.21137
O         -0.95026        0.42765       -3.89226
O          2.41323       -0.25680       -2.45396
O         -0.92147        0.69548       -1.15493
O          2.46739        0.09956        0.14855
H          0.71570       -0.97190        0.21940
H          0.65203        0.63696        0.91939
H          0.87471        1.65671       -1.35061
H          0.59862       -1.20523       -2.38361
H          0.84648        1.40722       -3.94283
H          0.65661       -1.46466       -4.99880
H          0.73227        1.18450       -6.54278
H         -0.68900        0.11916       -6.41794
H          1.81920       -0.83202       -7.29003
H          2.71099        0.48930       -5.26856
H         -1.30018       -0.47634       -3.80704
H          2.76694        0.63390       -2.63223
H         -1.27538       -0.20844       -1.12346
H          2.80115       -0.38789       -0.63361
26 26 26 26 26 26 26 26 26 26 26 26 26 26 26 26 26 26 26 26 26 26 26 26 26 26 26 26 26 26 26 26 26 26 26 26 26 26 26 26 26 26 26 26 26 26 26 26 26 26 26 26 26 26 26 26 26 26 26 26 26 26 26 26 26 26 26 26 26 26 26 26 26
C(C(C(C(C(CO)O)O)O)O)O
InChI=1S/C6H14O6/c7-1-3(9)5(11)6(12)4(10)2-8/h3-12H,1-2H2/t3-,4+,5-,6+
