21
metacyc CPD-17570  -615.26824576 -615.26824576 -615.26824576 -615.26824576 -615.26824576 -615.26824576 -615.26824576 -615.26824576 -615.26824576 -615.26824576 -615.26824576 -615.26824576 -615.26824576 -615.26824576 -615.26824576
C          0.69342        1.29087       -0.08798
C         -0.78705        1.25483        0.19594
N         -1.38883        2.34713        0.90524
O         -2.43621        2.08003        1.49842
O         -0.79172        3.42533        0.89931
C         -1.46434       -0.01287       -0.16846
C         -0.78998       -1.28277        0.18522
C          0.68112       -1.32748       -0.14768
C          1.35625       -0.04109        0.26566
N          2.52764       -0.01075        0.87443
O          3.26469       -1.12448        1.25499
O          3.05153        1.10277        1.17256
N         -1.36613       -2.35941        0.94109
O         -2.48739       -2.15397        1.40425
O         -0.66498       -3.36014        1.11362
O         -2.43629       -0.01190       -0.89482
H          1.16835        2.14001        0.40491
H          0.81489        1.43016       -1.17034
H          0.76088       -1.38895       -1.24165
H          1.15621       -2.21912        0.24840
H          2.73956       -1.89147        1.01645
21 21 21 21 21 21 21 21 21 21 21 21 21 21 21 21 21 21 21 21 21 21 21 21 21 21 21 21 21 21 21 21 21 21 21 21 21 21 21 21 21 21 21 21 21 21 21 21 21 21 21 21 21 21 21 21 21 21
C1(C(=N([O-])=O)C(C(CC1=[N+](O)[O-])=N(=O)[O-])=O)
InChI=1S/C6H5N3O7/c10-6-4(8(13)14)1-3(7(11)12)2-5(6)9(15)16/h1-2H2,(H-2,10,11,12,13,14,15,16)/q-2
