24
metacyc CPD-10730  -401.31488704 -401.31488704 -401.31488704 -401.31488704 -401.31488704 -401.31488704 -401.31488704 -401.31488704 -401.31488704 -401.31488704 -401.31488704 -401.31488704 -401.31488704 -401.31488704 -401.31488704
C          1.04898       -0.00794        0.08504
O          0.60777       -0.11580        1.43652
C          2.56936       -0.10840       -0.00604
O          3.18087        0.94276        0.77015
C          4.50431        0.49639        1.06908
O          4.89991        1.08615        2.30632
C          5.50959        0.95285       -0.00855
O          6.83945        0.55278        0.34573
C          4.42720       -1.03991        1.23276
O          5.51378       -1.80438        0.69141
C          3.12909       -1.42571        0.52367
O          3.36299       -2.33195       -0.55492
H          0.70718        0.96178       -0.29191
H          0.56828       -0.79874       -0.49923
H          1.06875        0.58720        1.92630
H          2.85874        0.03906       -1.05421
H          4.76038        2.04113        2.18978
H          5.50441        2.04429       -0.10405
H          5.26713        0.53650       -0.99116
H          7.01594        0.93951        1.22596
H          4.35562       -1.29605        2.29638
H          6.31928       -1.24471        0.72870
H          2.45061       -1.91073        1.23409
H          4.26690       -2.68440       -0.39779
24 24 24 24 24 24 24 24 24 24 24 24 24 24 24 24 24 24 24 24 24 24 24 24 24 24 24 24 24 24 24 24 24 24 24 24 24 24 24 24 24 24 24 24 24 24 24 24 24 24 24 24 24 24 24 24 24 24 24 24 24 24 24 24 24 24 24
C(O)C1(OC(O)(CO)C(O)C(O)1)
InChI=1S/C6H12O6/c7-1-3-4(9)5(10)6(11,2-8)12-3/h3-5,7-11H,1-2H2/t3-,4-,5+,6-/m0/s1
