29
metacyc CPD-9398  -65.320865316 -65.320865316 -65.320865316 -65.320865316 -65.320865316 -65.320865316 -65.320865316 -65.320865316 -65.320865316 -65.320865316 -65.320865316 -65.320865316 -65.320865316 -65.320865316 -65.320865316
C          1.03349       -0.23021        0.57026
C          2.50014       -0.09723        0.18629
O          3.26207       -1.17401        0.76299
C          2.86894        0.00324       -1.32954
O          4.31435        0.07695       -1.36866
C          2.44728       -1.18476       -2.24093
O          1.03568       -1.21004       -2.47115
C          0.55142       -0.05618       -3.14291
C          0.89940        1.25583       -2.41039
C          2.36276        1.30589       -1.97894
O          0.62026        2.40199       -3.22197
O          0.98132       -0.02010       -4.49967
C          2.86076       -2.56943       -1.75162
H          0.93787       -0.51017        1.62595
H          0.52562       -1.01031       -0.00189
H          0.50017        0.71392        0.44239
H          2.89054        0.79890        0.68489
H          2.64381       -1.84151        1.11197
H          4.62523       -0.49656       -0.63474
H          2.95374       -1.06423       -3.20892
H         -0.53918       -0.14618       -3.18660
H          0.26438        1.33895       -1.52705
H          2.53181        2.16412       -1.31506
H          2.98388        1.53532       -2.85797
H          0.37378        2.08276       -4.11167
H          1.87784        0.35562       -4.51748
H          2.26711       -2.88932       -0.89067
H          3.92515       -2.61484       -1.50266
H          2.66962       -3.31033       -2.53713
29 29 29 29 29 29 29 29 29 29 29 29 29 29 29 29 29 29 29 29 29 29 29 29 29 29 29 29 29 29 29 29 29 29 29 29 29 29 29 29 29 29 29 29 29 29 29 29 29 29 29 29 29 29 29 29 29 29 29 29 29 29 29 29 29 29 29 29 29 29 29 29 29 29 29 29 29 29 29 29 29 29
CC(O)C1(O)(C(OC(C(C1)O)O)C)
InChI=1S/C8H16O5/c1-4(9)8(12)3-6(10)7(11)13-5(8)2/h4-7,9-12H,3H2,1-2H3/t4-,5+,6+,7+,8+/m0/s1
