26
metacyc CPD-1116  -253.498091632 -253.498091632 -253.498091632 -253.498091632 -253.498091632 -253.498091632 -253.498091632 -253.498091632 -253.498091632 -253.498091632 -253.498091632 -253.498091632 -253.498091632 -253.498091632 -253.498091632
C          3.43881       -0.00189        1.23099
C          2.73621        0.44333       -0.04458
C          3.16360       -0.25711       -1.32880
C          3.00117       -1.74234       -1.54860
O          2.39392       -2.41502       -0.55011
C          2.49834       -3.86587       -0.50175
C          2.02459       -4.56638       -1.78338
C          3.91591       -4.29629       -0.15053
C          4.29521       -3.74479        1.21552
O          3.62645       -4.18789        2.19460
O          5.24808       -2.91590        1.21256
O          3.40233       -2.24846       -2.59371
O          1.31708        0.44672        0.09984
H          4.42549       -0.42388        1.02888
H          2.83949       -0.70687        1.81328
H          3.59834        0.87255        1.87641
H          3.00662        1.49899       -0.18778
H          4.23565       -0.06627       -1.46536
H          2.62329        0.21645       -2.15812
H          1.80893       -4.17439        0.29328
H          2.81844       -4.61297       -2.53878
H          1.17012       -4.05214       -2.23421
H          1.74238       -5.60468       -1.57596
H          4.63831       -3.94727       -0.89931
H          3.99597       -5.39047       -0.11093
H          1.12169        0.53991        1.04857
26 26 26 26 26 26 26 26 26 26 26 26 26 26 26 26 26 26 26 26 26 26 26 26 26 26 26 26 26 26 26 26 26 26 26 26 26 26 26 26 26 26 26 26 26 26 26 26 26 26 26 26 26 26 26 26 26 26 26 26 26 26 26 26 26 26 26 26 26 26 26 26 26
CC(CC(OC(C)CC([O-])=O)=O)O
InChI=1S/C8H14O5/c1-5(9)3-8(12)13-6(2)4-7(10)11/h5-6,9H,3-4H2,1-2H3,(H,10,11)/p-1/t5-,6-/m1/s1
