18
metacyc CPD-145  -624.05736536 -624.05736536 -624.05736536 -624.05736536 -624.05736536 -624.05736536 -624.05736536 -624.05736536 -624.05736536 -624.05736536 -624.05736536 -624.05736536 -624.05736536 -624.05736536 -624.05736536
C          1.02342        0.10546        0.14623
O          0.55620       -1.24313        0.10049
N         -0.85551       -1.32694        0.11037
O         -1.47902       -0.26715        0.19332
O         -1.26784       -2.48259        0.04076
C          2.55477        0.09172        0.06051
O          2.96267       -0.44519       -1.20625
C          3.13364        1.49997        0.24158
O          4.55841        1.40776        0.23344
N          5.18299        2.67293        0.32944
O          4.44607        3.65278        0.45533
O          6.40855        2.60808        0.27711
H          0.71316        0.57226        1.08888
H          0.62110        0.66448       -0.70801
H          2.96794       -0.58470        0.81737
H          2.66359        0.14005       -1.92303
H          2.79413        1.91466        1.19878
H          2.80029        2.13496       -0.58880
18 18 18 18 18 18 18 18 18 18 18 18 18 18 18 18 18 18 18 18 18 18 18 18 18 18 18 18 18 18 18 18 18 18 18 18 18 18 18 18 18 18 18 18 18 18 18 18 18
C(O[N+](=O)[O-])C(O)CO[N+](=O)[O-]
InChI=1S/C3H6N2O7/c6-3(1-11-4(7)8)2-12-5(9)10/h3,6H,1-2H2
