20
metacyc CPD-785  -830.11781728 -830.11781728 -830.11781728 -830.11781728 -830.11781728 -830.11781728 -830.11781728 -830.11781728 -830.11781728 -830.11781728 -830.11781728 -830.11781728 -830.11781728 -830.11781728 -830.11781728
C          0.83959       -0.20798       -0.17374
C          0.33186        0.99466        0.62486
C          1.32891        1.94289        1.31086
C          2.16885        2.74760        0.32730
C          3.51281        2.68868        0.27642
C          4.32919        3.49340       -0.68552
C          5.88450        3.42020       -0.63288
O          6.41085        2.72670        0.30412
O          6.54893        4.07055       -1.51212
O          3.83501        4.24521       -1.52719
C          0.51731        2.91509        2.22248
O         -0.38543        3.62191        1.67539
O          0.82312        2.89421        3.45736
O          1.91169       -0.75399        0.21249
O          0.06244       -0.59836       -1.10265
H         -0.30264        0.55238        1.40802
H         -0.34943        1.56911       -0.01661
H          1.99132        1.35022        1.95599
H          1.62344        3.39906       -0.35155
H          4.06953        2.04283        0.94636
20 20 20 20 20 20 20 20 20 20 20 20 20 20 20 20 20 20 20 20 20 20 20 20 20 20 20 20 20 20 20 20 20 20 20 20 20 20 20 20 20 20 20 20 20 20 20 20 20 20 20 20 20 20 20
C(CC(C=CC(C([O-])=O)=O)C([O-])=O)([O-])=O
InChI=1S/C8H8O7/c9-5(8(14)15)2-1-4(7(12)13)3-6(10)11/h1-2,4H,3H2,(H,10,11)(H,12,13)(H,14,15)/p-3/b2-1+/t4-/m0/s1
