21
metacyc CPD-804  -597.38846568 -597.38846568 -597.38846568 -597.38846568 -597.38846568 -597.38846568 -597.38846568 -597.38846568 -597.38846568 -597.38846568 -597.38846568 -597.38846568 -597.38846568 -597.38846568 -597.38846568
C          3.21635        1.55907        0.17631
C          2.36857        2.53454       -0.64433
C          1.30116        1.93180       -1.57100
C          0.47715        2.96624       -2.37381
O         -0.23071        3.80687       -1.45498
C          1.35614        3.79794       -3.31067
C          0.63841        4.87836       -4.08009
C         -0.36825        4.51037       -5.18079
O         -0.87415        5.45535       -5.87116
O         -0.58473        3.26708       -5.34231
O          0.91232        6.07489       -3.93627
O          4.05523        2.12299        0.94084
O          3.00091        0.32874        0.00597
H          3.07963        3.12366       -1.23314
H          1.89383        3.21426        0.07291
H          0.61197        1.34294       -0.95056
H          1.77790        1.23059       -2.26673
H         -0.28376        2.42393       -2.94750
H          0.43482        4.31148       -0.95895
H          1.88174        3.15156       -4.02299
H          2.12285        4.32412       -2.72969
21 21 21 21 21 21 21 21 21 21 21 21 21 21 21 21 21 21 21 21 21 21 21 21 21 21 21 21 21 21 21 21 21 21 21 21 21 21 21 21 21 21 21 21 21 21 21 21 21 21 21 21 21 21 21 21 21 21
C(CCC(O)CC(C([O-])=O)=O)([O-])=O
InChI=1S/C7H10O6/c8-4(1-2-6(10)11)3-5(9)7(12)13/h4,8H,1-3H2,(H,10,11)(H,12,13)/p-2/t4-/m0/s1
