22
metacyc CPD-14808  -463.12196012 -463.12196012 -463.12196012 -463.12196012 -463.12196012 -463.12196012 -463.12196012 -463.12196012 -463.12196012 -463.12196012 -463.12196012 -463.12196012 -463.12196012 -463.12196012 -463.12196012
C          0.64606        1.24309       -0.24310
C         -0.82935        1.24034        0.21859
C         -1.55438       -0.03855       -0.23359
C         -0.75455       -1.20372        0.33686
C          0.66878       -1.31980       -0.20029
C          1.40768       -0.02737        0.19699
O          1.65973       -0.01523        1.61175
O          1.37262       -2.45563        0.27028
O         -1.18144       -1.91868        1.24126
O         -2.90286       -0.06001        0.21271
O         -1.47979        2.40291       -0.30982
O          0.65862        1.43957       -1.66673
H          1.13292        2.12424        0.18973
H         -0.88240        1.32165        1.31156
H         -1.58317       -0.11620       -1.32484
H          0.60772       -1.41261       -1.29035
H          2.39393       -0.03823       -0.27909
H          0.84122       -0.13078        2.12351
H          1.45154       -2.37051        1.23972
H         -2.90206       -0.23491        1.17082
H         -1.13375        2.53107       -1.21522
H          0.75091        0.60110       -2.14624
22 22 22 22 22 22 22 22 22 22 22 22 22 22 22 22 22 22 22 22 22 22 22 22 22 22 22 22 22 22 22 22 22 22 22 22 22 22 22 22 22 22 22 22 22 22 22 22 22 22 22 22 22 22 22 22 22 22 22 22 22
C1(C(C(C(C(C1O)O)=O)O)O)O
InChI=1S/C6H10O6/c7-1-2(8)4(10)6(12)5(11)3(1)9/h1-5,7-11H/t1-,2-,3+,4+,5-
