33
metacyc CPD-10734  -745.98736784 -745.98736784 -745.98736784 -745.98736784 -745.98736784 -745.98736784 -745.98736784 -745.98736784 -745.98736784 -745.98736784 -745.98736784 -745.98736784 -745.98736784 -745.98736784 -745.98736784
C          2.95250       -0.07113       -1.70769
O          1.75504        0.67681       -1.46197
C          3.74582       -0.27334       -0.40828
O          4.02384        1.04432        0.12353
C          2.98285       -1.06520        0.67718
C          2.58294       -2.50026        0.25973
H          1.87737       -2.34784       -0.56630
O          3.59916       -3.29021       -0.36413
C          4.42774       -4.14891        0.44753
C          5.67037       -3.33658        1.01877
O          6.70131       -3.39363        0.27432
O          5.47530       -2.68350        2.07483
O          4.96265       -5.13835       -0.46928
C          3.65859       -4.92576        1.51052
C          2.68244       -4.05250        2.28188
C          1.79161       -3.27197        1.31776
O          0.94303       -4.24426        0.64443
O          1.84161       -4.90243        3.08581
O          3.67540       -0.95171        1.92824
H          3.53814        0.51370       -2.42464
H          2.67899       -1.01516       -2.18422
H          2.06659        1.49044       -1.01299
H          4.71172       -0.74018       -0.62496
H          4.31879        0.86253        1.04209
H          2.04860       -0.52510        0.87744
H          5.85591       -4.76135       -0.66260
H          4.34340       -5.42585        2.20853
H          3.11082       -5.75531        1.04047
H          3.20767       -3.38211        2.96534
H          1.10581       -2.61788        1.86558
H          1.48905       -4.62359       -0.07454
H          1.11812       -5.17662        2.48616
H          4.46023       -1.56277        1.95174
33 33 33 33 33 33 33 33 33 33 33 33 33 33 33 33 33 33 33 33 33 33 33 33 33 33 33 33 33 33 33 33 33 33 33 33 33 33 33 33 33 33 33 33 33 33 33 33 33 33 33 33 33 33 33 33 33 33 33 33 33 33 33 33 33 33 33 33 33 33 33 33 33 33 33 33 33 33 33 33 33 33 33 33 33 33 33 33 33 33 33 33 33 33
C(O)C(O)C([CH]1(OC(C([O-])=O)(O)CC(C1O)O))O
InChI=1S/C9H16O9/c10-2-4(12)6(14)7-5(13)3(11)1-9(17,18-7)8(15)16/h3-7,10-14,17H,1-2H2,(H,15,16)/p-1/t3-,4+,5+,6+,7+,9-/m0/s1
