20
metacyc CPD-676  -165.871424848 -165.871424848 -165.871424848 -165.871424848 -165.871424848 -165.871424848 -165.871424848 -165.871424848 -165.871424848 -165.871424848 -165.871424848 -165.871424848 -165.871424848 -165.871424848 -165.871424848
C          1.00090        1.82884        0.38185
O          0.47519        0.91910        1.07770
O          0.46272        2.77900       -0.25747
C          2.52453        1.81694        0.28427
C          3.30444        0.92950        0.92197
C          4.77116        0.93425        0.83149
C          5.48560        2.13478        0.69717
C          6.87008        2.10914        0.58474
O          7.59503        3.25814        0.41448
C          7.55783        0.90131        0.63325
O          8.91753        0.89240        0.50054
C          6.87659       -0.29368        0.80851
C          5.48054       -0.27510        0.91195
H          2.93681        2.59028       -0.35576
H          2.84314        0.15088        1.52750
H          4.94758        3.07749        0.67972
H          6.95415        3.99032        0.36514
H          9.14215        1.83438        0.36254
H          7.42000       -1.23169        0.85252
H          4.94410       -1.21339        1.03630
20 20 20 20 20 20 20 20 20 20 20 20 20 20 20 20 20 20 20 20 20 20 20 20 20 20 20 20 20 20 20 20 20 20 20 20 20 20 20 20 20 20 20 20 20 20 20 20 20 20 20 20 20 20 20
C([O-])(=O)C=CC1(C=C(O)C(O)=CC=1)
InChI=1S/C9H8O4/c10-7-3-1-6(5-8(7)11)2-4-9(12)13/h1-5,10-11H,(H,12,13)/p-1/b4-2+
