24
metacyc CPD-3607  -397.59112704 -397.59112704 -397.59112704 -397.59112704 -397.59112704 -397.59112704 -397.59112704 -397.59112704 -397.59112704 -397.59112704 -397.59112704 -397.59112704 -397.59112704 -397.59112704 -397.59112704
C          0.96183        0.00497        0.12814
O          0.61215        1.33033        0.50393
C          2.48206       -0.12635       -0.06782
O          2.87232       -1.46321       -0.41890
C          2.51099       -1.87533       -1.73472
O          3.04908       -3.17298       -1.94808
C          3.03730       -0.92145       -2.82677
O          4.47492       -1.04480       -2.91057
C          2.62975        0.52145       -2.49467
O          3.21376        1.43304       -3.42734
C          3.07233        0.88229       -1.06803
O          4.51590        0.80813       -1.02520
H          0.39098       -0.27610       -0.76177
H          0.63888       -0.67461        0.92535
H          0.26291        1.79343       -0.27833
H          2.95024        0.07184        0.90585
H          1.42192       -1.96343       -1.79336
H          3.95808       -3.01164       -2.26873
H          2.66167       -1.21816       -3.81207
H          4.83829       -0.57037       -2.12947
H          1.54340        0.62677       -2.58712
H          4.18141        1.30905       -3.34756
H          2.80458        1.91572       -0.82834
H          4.78269        0.87645       -0.08756
24 24 24 24 24 24 24 24 24 24 24 24 24 24 24 24 24 24 24 24 24 24 24 24 24 24 24 24 24 24 24 24 24 24 24 24 24 24 24 24 24 24 24 24 24 24 24 24 24 24 24 24 24 24 24 24 24 24 24 24 24 24 24 24 24 24 24
C(O)C1(OC(O)C(O)C(O)C(O)1)
InChI=1S/C6H12O6/c7-1-2-3(8)4(9)5(10)6(11)12-2/h2-11H,1H2/t2-,3-,4+,5-,6?/m0/s1
