13
metacyc CPD-9383  -14.1928020424 -14.1928020424 -14.1928020424 -14.1928020424 -14.1928020424 -14.1928020424 -14.1928020424 -14.1928020424 -14.1928020424 -14.1928020424 -14.1928020424 -14.1928020424 -14.1928020424 -14.1928020424 -14.1928020424
C          1.08374       -0.14386       -0.09053
N          0.45483        0.37212        1.13559
H          0.86490        1.28394        1.35053
H         -0.53768        0.52468        0.97092
C          2.60649       -0.06472       -0.00254
O          3.22882        0.78653        0.62154
O          3.16843       -1.04005       -0.77301
C          4.59623       -1.05297       -0.74161
H          0.76336        0.44478       -0.95576
H          0.77776       -1.18513       -0.22561
H          4.94218       -1.84198       -1.41519
H          4.95182       -1.27930        0.26859
H          5.00056       -0.09820       -1.09153
13 13 13 13 13 13 13 13 13 13 13 13 13 13 13 13 13 13 13 13 13 13 13 13 13 13 13 13 13 13 13 13 13 13
C([NH2])C(=O)OC
InChI=1S/C3H7NO2/c1-6-3(5)2-4/h2,4H2,1H3
