20
metacyc CPD-15378  -321.4516992 -321.4516992 -321.4516992 -321.4516992 -321.4516992 -321.4516992 -321.4516992 -321.4516992 -321.4516992 -321.4516992 -321.4516992 -321.4516992 -321.4516992 -321.4516992 -321.4516992
C          2.94829        0.58109       -1.41927
H          2.94358        1.68119       -1.49051
O          3.27247       -0.11902       -2.38133
C          2.47419        0.00720       -0.09544
O          1.04538        0.01477       -0.10759
C          2.98914       -1.43093        0.11542
O          2.47916       -2.29303       -0.91439
C          4.52103       -1.49145        0.21120
O          4.94455       -0.68524        1.31898
C          5.04248       -2.92176        0.38707
O          6.46533       -2.87341        0.54669
H          2.81441        0.67079        0.70550
H          0.77133       -0.80222       -0.57085
H          2.55585       -1.79874        1.05479
H          2.75628       -1.91142       -1.77670
H          4.99486       -1.07132       -0.68307
H          5.65362       -1.18400        1.77475
H          4.80440       -3.55942       -0.46878
H          4.63808       -3.37901        1.29492
H          6.84022       -2.57606       -0.30269
20 20 20 20 20 20 20 20 20 20 20 20 20 20 20 20 20 20 20 20 20 20 20 20 20 20 20 20 20 20 20 20 20 20 20 20 20 20 20 20 20 20 20 20 20 20 20 20 20 20 20 20 20 20 20
[CH](=O)C(O)C(O)C(O)CO
InChI=1S/C5H10O5/c6-1-3(8)5(10)4(9)2-7/h1,3-5,7-10H,2H2/t3-,4+,5+/m1/s1
