20
metacyc CPD-143  -864.9348896 -864.9348896 -864.9348896 -864.9348896 -864.9348896 -864.9348896 -864.9348896 -864.9348896 -864.9348896 -864.9348896 -864.9348896 -864.9348896 -864.9348896 -864.9348896 -864.9348896
C          0.91703       -0.20843       -0.12608
O          0.41646        1.11120       -0.33826
N         -0.99848        1.14655       -0.42753
O         -1.59157        0.07023       -0.34940
O         -1.43586        2.28260       -0.58922
C          2.44036       -0.12988        0.07470
O          2.85598        0.81365        1.07593
N          2.49029        0.52614        2.40988
O          1.81996       -0.48509        2.60529
O          2.91061        1.35772        3.20764
C          3.09114       -1.51728        0.21369
O          4.50723       -1.34921        0.27726
N          5.18776       -2.56734        0.52894
O          4.49968       -3.58406        0.62197
O          6.40503       -2.42408        0.60840
H          0.70896       -0.82224       -1.01179
H          0.42728       -0.66380        0.73889
H          2.84893        0.31135       -0.84533
H          2.83575       -2.11955       -0.66746
H          2.73104       -2.03309        1.10805
20 20 20 20 20 20 20 20 20 20 20 20 20 20 20 20 20 20 20 20 20 20 20 20 20 20 20 20 20 20 20 20 20 20 20 20 20 20 20 20 20 20 20 20 20 20 20 20 20 20 20 20 20 20 20
C(O[N+](=O)[O-])C(O[N+]([O-])=O)CO[N+](=O)[O-]
InChI=1S/C3H5N3O9/c7-4(8)13-1-3(15-6(11)12)2-14-5(9)10/h3H,1-2H2
