14
metacyc CPD-2301  -168.2570496 -168.2570496 -168.2570496 -168.2570496 -168.2570496 -168.2570496 -168.2570496 -168.2570496 -168.2570496 -168.2570496 -168.2570496 -168.2570496 -168.2570496 -168.2570496 -168.2570496
C         -1.21681       -0.73081        0.01315
C          0.00751       -1.37937        0.08784
C          1.16998       -0.61080        0.10436
O          2.38676       -1.23265        0.18131
N          1.19849        0.73117        0.04802
C         -0.00526        1.31578       -0.02495
O          0.04495        2.66909       -0.08378
C         -1.22417        0.66089       -0.04490
O          0.11016       -2.73960        0.14535
H         -2.15460       -1.27490       -0.00070
H          2.16451       -2.18077        0.21705
H          1.01179        2.79545       -0.05460
H         -2.14886        1.22260       -0.10457
H         -0.78648       -3.11669        0.10553
14 14 14 14 14 14 14 14 14 14 14 14 14 14 14 14 14 14 14 14 14 14 14 14 14 14 14 14 14 14 14 14 14 14 14 14 14
C1(C(=C(O)N=C(O)C=1)O)
InChI=1S/C5H5NO3/c7-3-1-2-4(8)6-5(3)9/h1-2,7H,(H2,6,8,9)
