23
metacyc CPD-11899  -249.728558672 -249.728558672 -249.728558672 -249.728558672 -249.728558672 -249.728558672 -249.728558672 -249.728558672 -249.728558672 -249.728558672 -249.728558672 -249.728558672 -249.728558672 -249.728558672 -249.728558672
C          1.05345       -0.13475       -0.05545
C          2.56731       -0.00127       -0.07080
C          3.14823        1.12913        0.80586
C          3.13839        2.49983        0.11533
O          3.84801        2.51889       -1.11477
O          2.45842        1.23771        2.06349
C          4.54255        0.56537        1.08901
O          5.44792        0.71641       -0.02440
C          4.21268       -0.91965        1.30394
O          5.33798       -1.74694        1.05639
O          3.15476       -1.23744        0.39018
H          0.57149        0.77213       -0.42975
H          0.67778       -0.34937        0.95114
H          0.74212       -0.97766       -0.68234
H          2.89328        0.10778       -1.11379
H          3.56047        3.26719        0.77412
H          2.10728        2.80737       -0.09106
H          4.79232        2.37991       -0.89219
H          1.55350        1.56004        1.89410
H          5.02542        0.99460        1.97186
H          5.08466        0.19626       -0.76997
H          3.85017       -1.11138        2.31910
H          5.96430       -1.21601        0.53380
23 23 23 23 23 23 23 23 23 23 23 23 23 23 23 23 23 23 23 23 23 23 23 23 23 23 23 23 23 23 23 23 23 23 23 23 23 23 23 23 23 23 23 23 23 23 23 23 23 23 23 23 23 23 23 23 23 23 23 23 23 23 23 23
CC1(C(CO)(O)C(O)C(O)O1)
InChI=1S/C6H12O5/c1-3-6(10,2-7)4(8)5(9)11-3/h3-5,7-10H,2H2,1H3/t3-,4-,5-,6+/m0/s1
