24
metacyc CPD-15759  -397.59112704 -397.59112704 -397.59112704 -397.59112704 -397.59112704 -397.59112704 -397.59112704 -397.59112704 -397.59112704 -397.59112704 -397.59112704 -397.59112704 -397.59112704 -397.59112704 -397.59112704
C          0.94384        0.12288        0.11184
O          0.61609        1.48837        0.35843
C          2.46504       -0.04241       -0.04870
C          2.89243       -1.49003       -0.32831
O          2.23683       -2.40430        0.55082
C          2.60288       -1.88336       -1.78282
O          3.18229       -3.17335       -2.02604
C          3.15932       -0.84785       -2.75845
O          4.60285       -0.86765       -2.69367
C          2.63827        0.54916       -2.38658
O          3.22407        1.52567       -3.23462
O          2.99718        0.86380       -1.04079
H          0.40027       -0.18464       -0.78556
H          0.56971       -0.46874        0.95247
H          1.23203        2.03273       -0.16275
H          2.91535        0.27447        0.90056
H          3.96877       -1.59040       -0.14042
H          2.32739       -3.28931        0.14189
H          1.52318       -1.99979       -1.92647
H          4.10294       -3.01160       -2.31944
H          2.90434       -1.10596       -3.79167
H          4.86905       -0.28149       -1.95532
H          1.55424        0.61922       -2.51361
H          4.10289        1.19232       -3.48909
24 24 24 24 24 24 24 24 24 24 24 24 24 24 24 24 24 24 24 24 24 24 24 24 24 24 24 24 24 24 24 24 24 24 24 24 24 24 24 24 24 24 24 24 24 24 24 24 24 24 24 24 24 24 24 24 24 24 24 24 24 24 24 24 24 24 24
C(O)C1(C(O)C(O)C(O)C(O)O1)
InChI=1S/C6H12O6/c7-1-2-3(8)4(9)5(10)6(11)12-2/h2-11H,1H2/t2-,3+,4+,5+,6-/m1/s1
