23
metacyc CPD-10543  -246.00480704 -246.00480704 -246.00480704 -246.00480704 -246.00480704 -246.00480704 -246.00480704 -246.00480704 -246.00480704 -246.00480704 -246.00480704 -246.00480704 -246.00480704 -246.00480704 -246.00480704
C          0.96552        0.30377        0.21282
C          2.47384        0.11432        0.03890
C          2.88166       -1.34475       -0.22954
O          2.22241       -2.24304        0.66517
C          2.57394       -1.74281       -1.67904
O          3.14819       -3.03523       -1.92691
C          3.12312       -0.71344       -2.66641
O          4.56982       -0.74028       -2.61706
C          2.62077        0.68943       -2.29172
O          3.19898        1.65786       -3.15484
O          3.01332        0.99799       -0.95557
H          0.59348       -0.25340        1.07931
H          0.40496       -0.03294       -0.66429
H          0.72861        1.36254        0.35629
H          2.93122        0.41251        0.98848
H          3.95909       -1.45687       -0.05098
H          2.26233       -3.12515        0.24438
H          1.49284       -1.85640       -1.81052
H          4.06902       -2.87206       -2.21889
H          2.85418       -0.97258       -3.69533
H          4.84166       -0.15556       -1.87965
H          1.53502        0.76895       -2.39713
H          4.07929        1.32184       -3.39894
23 23 23 23 23 23 23 23 23 23 23 23 23 23 23 23 23 23 23 23 23 23 23 23 23 23 23 23 23 23 23 23 23 23 23 23 23 23 23 23 23 23 23 23 23 23 23 23 23 23 23 23 23 23 23 23 23 23 23 23 23 23 23 23
CC1(C(O)C(O)C(O)C(O)O1)
InChI=1S/C6H12O5/c1-2-3(7)4(8)5(9)6(10)11-2/h2-10H,1H3/t2-,3-,4+,5-,6+/m1/s1
