24
metacyc CPD-15621  -397.59112704 -397.59112704 -397.59112704 -397.59112704 -397.59112704 -397.59112704 -397.59112704 -397.59112704 -397.59112704 -397.59112704 -397.59112704 -397.59112704 -397.59112704 -397.59112704 -397.59112704
C          0.90453        0.13208        0.07430
O          0.54710        1.45289        0.45741
C          2.42522        0.00727       -0.11576
O          2.82358       -1.32485       -0.47032
C          2.46387       -1.73793       -1.78563
O          3.00706       -3.03229       -1.99994
C          2.98558       -0.77965       -2.87754
O          4.42466       -0.89977       -2.96320
C          2.57489        0.66086       -2.54179
O          3.15808        1.57623       -3.47224
C          3.01585        1.01952       -1.11445
O          4.46053        0.94614       -1.07228
H          0.33832       -0.14506       -0.81964
H          0.58175       -0.55371        0.86543
H          0.22002        1.92734       -0.32744
H          2.88989        0.20636        0.85827
H          1.37533       -1.83060       -1.84485
H          3.91671       -2.86784       -2.32431
H          2.61078       -1.07663       -3.86288
H          4.78731       -0.42413       -2.18312
H          1.48956        0.76536       -2.63592
H          4.12620        1.45649       -3.38923
H          2.74634        2.05217       -0.87176
H          4.72518        0.97974       -0.13216
24 24 24 24 24 24 24 24 24 24 24 24 24 24 24 24 24 24 24 24 24 24 24 24 24 24 24 24 24 24 24 24 24 24 24 24 24 24 24 24 24 24 24 24 24 24 24 24 24 24 24 24 24 24 24 24 24 24 24 24 24 24 24 24 24 24 24
C(O)C1(OC(O)C(O)C(O)C(O)1)
InChI=1S/C6H12O6/c7-1-2-3(8)4(9)5(10)6(11)12-2/h2-11H,1H2/t2-,3+,4-,5-,6+/m1/s1
