23
metacyc CPD-15941  -246.00480704 -246.00480704 -246.00480704 -246.00480704 -246.00480704 -246.00480704 -246.00480704 -246.00480704 -246.00480704 -246.00480704 -246.00480704 -246.00480704 -246.00480704 -246.00480704 -246.00480704
C          0.89231        0.24810        0.04667
C          2.39933        0.04988       -0.12699
C          2.79988       -1.40958       -0.40250
O          2.13467       -2.30623        0.48835
C          2.49836       -1.80445       -1.85465
O          3.07536       -3.09567       -2.10360
C          3.04923       -0.77391       -2.83807
O          4.49673       -0.80273       -2.78688
C          2.54766        0.62898       -2.45846
O          3.12174        1.60051       -3.32175
O          2.94251        0.93378       -1.12155
H          0.52105       -0.30422        0.91602
H          0.32896       -0.09075       -0.82776
H          0.66032        1.30848        0.18653
H          2.85875        0.34738        0.82398
H          3.87602       -1.52625       -0.22037
H          2.19544       -3.19126        0.07684
H          1.41682       -1.91925       -1.99099
H          3.99599       -2.92937       -2.39535
H          2.78230       -1.02747       -3.86867
H          4.76155       -0.21651       -2.04639
H          1.46194        0.70993       -2.56257
H          4.00420        1.27188       -3.56703
23 23 23 23 23 23 23 23 23 23 23 23 23 23 23 23 23 23 23 23 23 23 23 23 23 23 23 23 23 23 23 23 23 23 23 23 23 23 23 23 23 23 23 23 23 23 23 23 23 23 23 23 23 23 23 23 23 23 23 23 23 23 23 23
CC1(C(O)C(O)C(O)C(O)O1)
InChI=1S/C6H12O5/c1-2-3(7)4(8)5(9)6(10)11-2/h2-10H,1H3/t2-,3-,4-,5-,6+/m1/s1
