20
metacyc CPD-15377  -321.4516992 -321.4516992 -321.4516992 -321.4516992 -321.4516992 -321.4516992 -321.4516992 -321.4516992 -321.4516992 -321.4516992 -321.4516992 -321.4516992 -321.4516992 -321.4516992 -321.4516992
C          2.85393        1.51947       -0.18007
H          2.86840        2.13823        0.73104
O          3.14873        1.99706       -1.27875
C          2.38978        0.08514        0.00683
O          0.96151        0.08529        0.02113
C          2.90265       -0.82506       -1.12792
O          2.37737       -0.38519       -2.39048
C          4.43482       -0.92714       -1.14231
O          4.86989       -1.45974        0.11673
C          4.95745       -1.80027       -2.29068
O          6.38126       -1.89806       -2.18459
H          2.74435       -0.26224        0.98170
H          0.68001        0.06839       -0.91570
H          2.48113       -1.82483       -0.96149
H          2.63963        0.55547       -2.50226
H          4.89876        0.06100       -1.24240
H          5.50167       -2.17990       -0.08262
H          4.70480       -1.38913       -3.27190
H          4.56377       -2.81830       -2.21620
H          6.74697       -1.00821       -2.34222
20 20 20 20 20 20 20 20 20 20 20 20 20 20 20 20 20 20 20 20 20 20 20 20 20 20 20 20 20 20 20 20 20 20 20 20 20 20 20 20 20 20 20 20 20 20 20 20 20 20 20 20 20 20 20
[CH](=O)C(O)C(O)C(O)CO
InChI=1S/C5H10O5/c6-1-3(8)5(10)4(9)2-7/h1,3-5,7-10H,2H2/t3-,4+,5+/m0/s1
