23
metacyc CPD-15219  -242.40658796 -242.40658796 -242.40658796 -242.40658796 -242.40658796 -242.40658796 -242.40658796 -242.40658796 -242.40658796 -242.40658796 -242.40658796 -242.40658796 -242.40658796 -242.40658796 -242.40658796
C          1.07761        0.06751        0.01899
C          2.60330        0.07105        0.05273
C          3.21590        1.49292       -0.01287
C          4.76390        1.45555       -0.02678
C          5.30275        2.89388       -0.04386
C          5.48934        3.52791       -1.42322
O          6.48830        4.53491       -1.42692
O          5.56890        3.53873        0.97390
O          5.31931        0.74175        1.07312
O          2.73052        2.18234       -1.17104
O          3.05849       -0.60769        1.22560
H          0.68885        0.52792       -0.89366
H          0.66371        0.59615        0.88427
H          0.70315       -0.96144        0.07099
H          2.95704       -0.50401       -0.81129
H          2.88919        2.05289        0.87282
H          5.11466        0.95665       -0.93666
H          4.54591        3.97664       -1.74312
H          5.78833        2.76286       -2.14463
H          6.40643        4.99360       -0.56777
H          4.65324        0.09742        1.39162
H          2.85755        1.61652       -1.95349
H          2.37473       -0.52646        1.91732
23 23 23 23 23 23 23 23 23 23 23 23 23 23 23 23 23 23 23 23 23 23 23 23 23 23 23 23 23 23 23 23 23 23 23 23 23 23 23 23 23 23 23 23 23 23 23 23 23 23 23 23 23 23 23 23 23 23 23 23 23 23 23 23
CC(C(C(C(CO)=O)O)O)O
InChI=1S/C6H12O5/c1-3(8)5(10)6(11)4(9)2-7/h3,5-8,10-11H,2H2,1H3/t3-,5-,6-/m1/s1
