29
metacyc CPD-18512  -18.3345951056 -18.3345951056 -18.3345951056 -18.3345951056 -18.3345951056 -18.3345951056 -18.3345951056 -18.3345951056 -18.3345951056 -18.3345951056 -18.3345951056 -18.3345951056 -18.3345951056 -18.3345951056 -18.3345951056
C          0.80232        0.28381        0.08385
C          2.33251        0.16133       -0.01976
C          2.94266        0.76472        1.25839
C          2.79240       -1.31619       -0.23922
O          2.11340       -2.26619        0.59842
C          2.50282       -2.27689        1.96157
C          2.52266       -1.75040       -1.70479
O          3.16456       -3.01015       -1.97750
C          3.02657       -0.72358       -2.71677
O          4.47421       -0.68954       -2.67282
C          2.47474        0.66418       -2.38611
O          3.03762        1.62993       -3.26560
O          2.85183        1.01527       -1.06179
H          0.41113       -0.26147        0.94902
H          0.29569       -0.10828       -0.80287
H          0.50255        1.33307        0.17704
H          2.50754        0.36424        2.17602
H          2.79571        1.85154        1.27873
H          4.02687        0.60405        1.28601
H          3.87371       -1.40919       -0.06734
H          2.43174       -3.30256        2.33288
H          1.80014       -1.67083        2.53908
H          3.52707       -1.92361        2.11110
H          1.44933       -1.92166       -1.84388
H          4.08828       -2.80074       -2.22169
H          2.76666       -1.01917       -3.74192
H          4.71878       -0.10077       -1.93014
H          1.38972        0.71391       -2.50516
H          3.93157        1.31440       -3.48658
29 29 29 29 29 29 29 29 29 29 29 29 29 29 29 29 29 29 29 29 29 29 29 29 29 29 29 29 29 29 29 29 29 29 29 29 29 29 29 29 29 29 29 29 29 29 29 29 29 29 29 29 29 29 29 29 29 29 29 29 29 29 29 29 29 29 29 29 29 29 29 29 29 29 29 29 29 29 29 29 29 29
CC1(C)(C(OC)C(O)C(O)C(O)O1)
InChI=1S/C8H16O5/c1-8(2)6(12-3)4(9)5(10)7(11)13-8/h4-7,9-11H,1-3H3/t4-,5+,6+,7?/m0/s1
