18
metacyc CPD-9432  -213.30458768 -213.30458768 -213.30458768 -213.30458768 -213.30458768 -213.30458768 -213.30458768 -213.30458768 -213.30458768 -213.30458768 -213.30458768 -213.30458768 -213.30458768 -213.30458768 -213.30458768
C          0.94575        0.14398        0.02141
O          0.44612        1.21732        0.81956
C          2.47163        0.00643        0.17988
O          3.14733        1.20503       -0.22884
C          3.54265        1.29167       -1.58751
C          4.10689        0.03024       -2.21607
O          4.77723        0.00986       -3.24905
C          3.76503       -1.25445       -1.56592
O          4.19965       -2.43592       -2.13199
C          2.99880       -1.23616       -0.47557
H          0.66444        0.34492       -1.01653
H          0.43795       -0.77052        0.34649
H          1.04782        1.97114        0.67932
H          2.68507       -0.06729        1.25306
H          4.33660        2.04507       -1.62808
H          2.70686        1.64383       -2.19682
H          4.71569       -2.16659       -2.92176
H          2.72186       -2.17906       -0.01704
18 18 18 18 18 18 18 18 18 18 18 18 18 18 18 18 18 18 18 18 18 18 18 18 18 18 18 18 18 18 18 18 18 18 18 18 18 18 18 18 18 18 18 18 18 18 18 18 18
C(O)C1(OCC(=O)C(O)=C1)
InChI=1S/C6H8O4/c7-2-4-1-5(8)6(9)3-10-4/h1,4,7-8H,2-3H2/t4-/m0/s1
