16
metacyc CPD-633  -338.7636268 -338.7636268 -338.7636268 -338.7636268 -338.7636268 -338.7636268 -338.7636268 -338.7636268 -338.7636268 -338.7636268 -338.7636268 -338.7636268 -338.7636268 -338.7636268 -338.7636268
C          1.03673       -0.03513        0.02268
O          0.41374       -1.13802        0.08343
O          0.51202        1.12932        0.04887
C          2.54086       -0.06762       -0.09326
C          3.29374        1.11627       -0.16015
O          2.70024        2.35290       -0.12348
C          4.68304        1.09138       -0.26899
C          5.35277       -0.12982       -0.32087
C          4.61967       -1.31277       -0.26068
O          5.24154       -2.52708       -0.32178
C          3.23232       -1.29047       -0.14289
H          1.72236        2.16678       -0.05078
H          5.23188        2.02643       -0.31493
H          6.43299       -0.13732       -0.40528
H          6.18294       -2.37066       -0.49049
H          2.67326       -2.22274       -0.09368
16 16 16 16 16 16 16 16 16 16 16 16 16 16 16 16 16 16 16 16 16 16 16 16 16 16 16 16 16 16 16 16 16 16 16 16 16 16 16 16 16 16 16
C(=O)([O-])C1(=C(O)C=CC(O)=C1)
InChI=1S/C7H6O4/c8-4-1-2-6(9)5(3-4)7(10)11/h1-3,8-9H,(H,10,11)/p-1
