17
metacyc CPD-142  -292.40494864 -292.40494864 -292.40494864 -292.40494864 -292.40494864 -292.40494864 -292.40494864 -292.40494864 -292.40494864 -292.40494864 -292.40494864 -292.40494864 -292.40494864 -292.40494864 -292.40494864
C          1.18746       -1.24761       -1.26653
C          0.22248       -0.04810       -1.37470
C         -1.25917       -0.16213       -1.41771
C         -1.94626       -1.20635       -0.79010
C         -3.33808       -1.29318       -0.88452
C         -4.03877       -0.32633       -1.59956
O         -5.39413       -0.39576       -1.73928
C         -3.37561        0.73802       -2.19918
C         -1.98485        0.82331       -2.10412
O          0.72948        1.07403       -1.46176
O          2.42953       -1.00426       -1.12886
O          0.65852       -2.40551       -1.33240
H         -1.40523       -1.96662       -0.23142
H         -3.84455       -2.12165       -0.40213
H         -5.68444       -1.24555       -1.36994
H         -3.93124        1.49082       -2.74989
H         -1.45913        1.64805       -2.57979
17 17 17 17 17 17 17 17 17 17 17 17 17 17 17 17 17 17 17 17 17 17 17 17 17 17 17 17 17 17 17 17 17 17 17 17 17 17 17 17 17 17 17 17 17 17
C(C(C1(C=CC(O)=CC=1))=O)(=O)[O-]
InChI=1S/C8H6O4/c9-6-3-1-5(2-4-6)7(10)8(11)12/h1-4,9H,(H,11,12)/p-1
