15
metacyc CPD-4841  -461.47377792 -461.47377792 -461.47377792 -461.47377792 -461.47377792 -461.47377792 -461.47377792 -461.47377792 -461.47377792 -461.47377792 -461.47377792 -461.47377792 -461.47377792 -461.47377792 -461.47377792
C         -1.15736       -0.65701       -0.01456
C          0.03678       -1.35655        0.09074
C          1.25473       -0.66734        0.13804
N          1.28239        0.70751        0.07814
C          0.10126        1.40623       -0.02779
C         -1.12356        0.72929       -0.07317
C          0.05885        2.95944       -0.10245
O         -1.10221        3.50156       -0.19404
O          1.14391        3.62861       -0.07267
C          2.55014       -1.51971        0.26047
O          3.68785       -0.94618        0.31136
O          2.40010       -2.79485        0.30586
H         -2.10213       -1.18550       -0.05027
H          0.03244       -2.44139        0.13758
H         -2.04650        1.29556       -0.15505
15 15 15 15 15 15 15 15 15 15 15 15 15 15 15 15 15 15 15 15 15 15 15 15 15 15 15 15 15 15 15 15 15 15 15 15 15 15 15 15
C1(C=C(N=C(C=1)C(=O)[O-])C(=O)[O-])
InChI=1S/C7H5NO4/c9-6(10)4-2-1-3-5(8-4)7(11)12/h1-3H,(H,9,10)(H,11,12)/p-2
