18
metacyc CPD-9136  -34.81518952 -34.81518952 -34.81518952 -34.81518952 -34.81518952 -34.81518952 -34.81518952 -34.81518952 -34.81518952 -34.81518952 -34.81518952 -34.81518952 -34.81518952 -34.81518952 -34.81518952
C          0.93658        0.00399        0.09810
C          2.43379        0.00775       -0.02095
C          3.13661        1.22109       -0.09549
C          4.52215        1.20495       -0.22097
O          5.25419        2.35767       -0.29969
C          5.21226       -0.00332       -0.27296
C          4.53851       -1.21276       -0.20053
C          3.15006       -1.19799       -0.07695
O          2.45451       -2.37350       -0.01007
O          6.57260       -0.00571       -0.40043
H          0.53960        1.01971        0.19749
H          0.62536       -0.55942        0.98374
H          0.48900       -0.44518       -0.79428
H          2.59461        2.16078       -0.05678
H          4.63843        3.10903       -0.24821
H          5.10081       -2.13839       -0.24363
H          3.08646       -3.10936       -0.06667
H          6.81490        0.94147       -0.43805
18 18 18 18 18 18 18 18 18 18 18 18 18 18 18 18 18 18 18 18 18 18 18 18 18 18 18 18 18 18 18 18 18 18 18 18 18 18 18 18 18 18 18 18 18 18 18 18 18
CC1(C=C(O)C(=CC=1O)O)
InChI=1S/C7H8O3/c1-4-2-6(9)7(10)3-5(4)8/h2-3,8-10H,1H3
