12
metacyc CPD-302  -436.95742072 -436.95742072 -436.95742072 -436.95742072 -436.95742072 -436.95742072 -436.95742072 -436.95742072 -436.95742072 -436.95742072 -436.95742072 -436.95742072 -436.95742072 -436.95742072 -436.95742072
C          0.93488       -0.01313        0.13055
C          0.27613       -0.72848        1.30696
O          0.81141       -0.57512        2.44341
O         -0.79243       -1.35746        1.02839
C          2.46032        0.03963        0.14846
N          3.00703       -1.30830       -0.09093
C          3.10507        0.96178       -0.92969
O          4.36046        1.14999       -0.82297
O          2.33434        1.47290       -1.79950
H          0.53975        1.01254        0.14467
H          0.58391       -0.46023       -0.80724
H          2.81611        0.39407        1.12384
12 12 12 12 12 12 12 12 12 12 12 12 12 12 12 12 12 12 12 12 12 12 12 12 12 12 12 12 12 12 12
C(C(=O)[O-])C([N+])C(=O)[O-]
InChI=1S/C4H7NO4/c5-2(4(8)9)1-3(6)7/h2H,1,5H2,(H,6,7)(H,8,9)/p-1/t2-/m1/s1
