24
metacyc CPD-15761  -397.59112704 -397.59112704 -397.59112704 -397.59112704 -397.59112704 -397.59112704 -397.59112704 -397.59112704 -397.59112704 -397.59112704 -397.59112704 -397.59112704 -397.59112704 -397.59112704 -397.59112704
C          0.95501        0.19732        0.20083
O          0.62093        1.55962        0.45244
C          2.47778        0.03723        0.04034
C          2.91077       -1.41011       -0.23741
O          2.25895       -2.32609        0.64268
C          2.62470       -1.80543       -1.69170
O          3.20766       -3.09397       -1.93270
C          3.17591       -0.76951       -2.66893
O          4.62154       -0.78080       -2.60185
C          2.64857        0.62464       -2.29815
O          3.22839        1.60435       -3.14632
O          3.00529        0.94419       -0.95290
H          0.41300       -0.11331       -0.69745
H          0.58218       -0.40113        1.04040
H          1.23845        2.10813       -0.06690
H          2.92546        0.35616        0.98989
H          3.98784       -1.50450       -0.04883
H          2.35774       -3.21199        0.23748
H          1.54556       -1.92544       -1.83734
H          4.12900       -2.92935       -2.22120
H          2.92240       -1.02961       -3.70125
H          4.88274       -0.18895       -1.86613
H          1.56431        0.68877       -2.42516
H          4.10877        1.27450       -3.39985
24 24 24 24 24 24 24 24 24 24 24 24 24 24 24 24 24 24 24 24 24 24 24 24 24 24 24 24 24 24 24 24 24 24 24 24 24 24 24 24 24 24 24 24 24 24 24 24 24 24 24 24 24 24 24 24 24 24 24 24 24 24 24 24 24 24 24
C(O)C1(C(O)C(O)C(O)C(O)O1)
InChI=1S/C6H12O6/c7-1-2-3(8)4(9)5(10)6(11)12-2/h2-11H,1H2/t2-,3-,4-,5+,6-/m1/s1
