22
metacyc CPD-14118  -90.249030624 -90.249030624 -90.249030624 -90.249030624 -90.249030624 -90.249030624 -90.249030624 -90.249030624 -90.249030624 -90.249030624 -90.249030624 -90.249030624 -90.249030624 -90.249030624 -90.249030624
C          0.98882       -0.07725       -0.07687
N          2.43922       -0.08893       -0.08494
C          3.15272       -1.24768       -0.05684
C          4.48481       -1.27577       -0.06230
N          4.92987       -2.56714       -0.03456
C          3.81205       -3.40990       -0.01524
O          3.79227       -4.62461        0.00082
N          2.70498       -2.53950       -0.02511
C          5.27040       -0.04563       -0.10663
O          6.49693       -0.09264       -0.09676
N          4.49686        1.11064       -0.16605
C          5.17830        2.38683       -0.25606
C          3.09167        1.15022       -0.15259
O          2.46654        2.21159       -0.20112
H          0.56222       -1.07493        0.04796
H          0.63436        0.35081       -1.02010
H          0.64104        0.55832        0.74438
H          5.89462       -2.86402       -0.03851
H          1.75331       -2.86772       -0.02273
H          6.26608        2.28161       -0.24446
H          4.87079        3.01832        0.58370
H          4.87915        2.88058       -1.18693
22 22 22 22 22 22 22 22 22 22 22 22 22 22 22 22 22 22 22 22 22 22 22 22 22 22 22 22 22 22 22 22 22 22 22 22 22 22 22 22 22 22 22 22 22 22 22 22 22 22 22 22 22 22 22 22 22 22 22 22 22
CN2(C1(=C(NC(=O)N1)C(=O)N(C)C(=O)2))
InChI=1S/C7H8N4O3/c1-10-4-3(8-6(13)9-4)5(12)11(2)7(10)14/h1-2H3,(H2,8,9,13)
