18
metacyc CPD-18275  -94.450549032 -94.450549032 -94.450549032 -94.450549032 -94.450549032 -94.450549032 -94.450549032 -94.450549032 -94.450549032 -94.450549032 -94.450549032 -94.450549032 -94.450549032 -94.450549032 -94.450549032
C          1.07616       -0.10312       -0.03356
C          2.57346       -0.04745       -0.03179
C          3.25656        1.17332       -0.03313
C          4.65066        1.18698       -0.03158
O          5.34048        2.36664       -0.03293
C          5.37879        0.00206       -0.02870
C          4.71827       -1.23677       -0.02756
C          3.31103       -1.24118       -0.02915
C          5.49665       -2.53801       -0.02466
O          6.76564       -2.45943       -0.02313
O          4.82061       -3.61609       -0.02404
H          0.63710        0.89999       -0.03282
H          0.71646       -0.62686        0.85795
H          0.71855       -0.62486       -0.92708
H          2.69685        2.10202       -0.03530
H          4.69445        3.08818       -0.03644
H          6.46646        0.02689       -0.02746
H          2.79715       -2.20277       -0.02837
18 18 18 18 18 18 18 18 18 18 18 18 18 18 18 18 18 18 18 18 18 18 18 18 18 18 18 18 18 18 18 18 18 18 18 18 18 18 18 18 18 18 18 18 18 18 18 18 18
CC1(C=C(O)C=C(C=1)C([O-])=O)
InChI=1S/C8H8O3/c1-5-2-6(8(10)11)4-7(9)3-5/h2-4,9H,1H3,(H,10,11)/p-1
