14
metacyc CPD-363  -572.1889868 -572.1889868 -572.1889868 -572.1889868 -572.1889868 -572.1889868 -572.1889868 -572.1889868 -572.1889868 -572.1889868 -572.1889868 -572.1889868 -572.1889868 -572.1889868 -572.1889868
C          0.89153       -0.02432       -0.23884
O          0.16632        0.61040        0.81789
C          2.40015        0.09897       -0.02455
O          2.83677        0.80794        0.89290
C          3.30554       -0.68769       -0.95100
O          2.97909       -2.09887       -0.88364
C          3.04421       -0.17771       -2.38339
O          3.68778        0.83362       -2.75709
O          2.17649       -0.87502       -2.99647
H          0.60656        0.45831       -1.17438
H          0.60309       -1.07873       -0.25239
H          0.77375        1.30116        1.15349
H          4.35333       -0.56294       -0.66264
H          2.44876       -2.22776       -1.70956
14 14 14 14 14 14 14 14 14 14 14 14 14 14 14 14 14 14 14 14 14 14 14 14 14 14 14 14 14 14 14 14 14 14 14 14 14
C(O)C(=O)C(O)C(=O)[O-]
InChI=1S/C4H6O5/c5-1-2(6)3(7)4(8)9/h3,5,7H,1H2,(H,8,9)/p-1/t3-/m1/s1
