22
metacyc CPD-12483  -90.249030624 -90.249030624 -90.249030624 -90.249030624 -90.249030624 -90.249030624 -90.249030624 -90.249030624 -90.249030624 -90.249030624 -90.249030624 -90.249030624 -90.249030624 -90.249030624 -90.249030624
C          1.07180        0.05004       -0.00801
N          2.50793        0.05877       -0.00711
C          3.32263        1.21225       -0.00512
O          2.99346        2.38345       -0.00448
N          4.64605        0.71723       -0.00407
C          4.60220       -0.64142       -0.00564
C          3.33151       -1.04098       -0.00757
C          3.01497       -2.47669       -0.01011
O          1.85147       -2.86883       -0.01130
N          4.14117       -3.30697       -0.01119
C          3.94302       -4.74259       -0.01541
C          5.46663       -2.85780       -0.00811
O          6.44635       -3.59984       -0.00776
N          5.64146       -1.49412       -0.00546
H          0.68790        1.07396       -0.00764
H          0.71263       -0.46530        0.88730
H          0.71362       -0.46437       -0.90424
H          5.45742        1.31357       -0.00281
H          2.88571       -5.01848       -0.01893
H          4.42128       -5.16935        0.87223
H          4.42575       -5.16462       -0.90292
H          6.59569       -1.16074       -0.00350
22 22 22 22 22 22 22 22 22 22 22 22 22 22 22 22 22 22 22 22 22 22 22 22 22 22 22 22 22 22 22 22 22 22 22 22 22 22 22 22 22 22 22 22 22 22 22 22 22 22 22 22 22 22 22 22 22 22 22 22 22
CN1(C(=O)NC2(=C1C(=O)N(C)C(=O)N2))
InChI=1S/C7H8N4O3/c1-10-3-4(8-6(10)13)9-7(14)11(2)5(3)12/h1-2H3,(H,8,13)(H,9,14)
