30
metacyc CPD-15099  -92.57279912 -92.57279912 -92.57279912 -92.57279912 -92.57279912 -92.57279912 -92.57279912 -92.57279912 -92.57279912 -92.57279912 -92.57279912 -92.57279912 -92.57279912 -92.57279912 -92.57279912
C          0.76848        0.48252       -1.41850
C          0.81795       -0.82030       -1.14690
N         -0.00858       -1.38007       -0.20044
C         -0.92954       -0.60084        0.51130
O         -1.69440       -1.12340        1.32024
N         -0.95362        0.75498        0.28911
C         -0.17936        1.27388       -0.61007
N         -0.25155        2.62760       -0.79308
C         -0.06387       -2.81429        0.04054
C         -1.20514       -3.53236       -0.70992
O         -1.35144       -3.09936       -2.07290
C         -0.69384       -4.96421       -0.72285
O         -1.02264       -5.65484        0.48173
C          0.81585       -4.76542       -0.91414
C          1.67082       -5.86638       -0.27950
O          3.06179       -5.66290       -0.52159
O          1.15617       -3.46968       -0.36069
H          1.37204        0.96138       -2.17504
H          1.49804       -1.47582       -1.68136
H         -0.71840        3.09975       -0.02443
H          0.57825        3.10408       -1.11775
H         -0.15815       -2.99102        1.12001
H         -2.16852       -3.41182       -0.20659
H         -0.55351       -2.60241       -2.32077
H         -1.10517       -5.54886       -1.55240
H         -0.63531       -5.20145        1.25067
H          1.05222       -4.68500       -1.98238
H          1.39718       -6.84861       -0.67828
H          1.54847       -5.88181        0.80750
H          3.18826       -5.53084       -1.47504
30 30 30 30 30 30 30 30 30 30 30 30 30 30 30 30 30 30 30 30 30 30 30 30 30 30 30 30 30 30 30 30 30 30 30 30 30 30 30 30 30 30 30 30 30 30 30 30 30 30 30 30 30 30 30 30 30 30 30 30 30 30 30 30 30 30 30 30 30 30 30 30 30 30 30 30 30 30 30 30 30 30 30 30 30
C1(=CN(C(=O)N=C(N)1)C2(C(O)C(O)C(CO)O2))
InChI=1S/C9H13N3O5/c10-5-1-2-12(9(16)11-5)8-7(15)6(14)4(3-13)17-8/h1-2,4,6-8,13-15H,3H2,(H2,10,11,16)/t4-,6-,7+,8-/m1/s1
