18
metacyc CPD-10823  -259.42563556 -259.42563556 -259.42563556 -259.42563556 -259.42563556 -259.42563556 -259.42563556 -259.42563556 -259.42563556 -259.42563556 -259.42563556 -259.42563556 -259.42563556 -259.42563556 -259.42563556
C          1.15702        0.03241       -0.00642
C          2.67935       -0.07616        0.10724
C          3.17822        0.07414        1.53970
C          2.64419       -0.93706        2.54631
O          2.36950       -2.08355        2.10027
O          2.55388       -0.50138        3.72801
C          3.22057       -1.25953       -0.61784
C          4.02430       -0.90962       -1.61625
C          4.04983        0.54810       -1.63532
O          4.68757        1.21888       -2.42938
O          3.23865        1.02573       -0.65554
H          0.63976       -0.78333        0.50769
H          0.83682        0.02608       -1.05544
H          0.80650        0.98282        0.41288
H          2.93235        1.08432        1.89599
H          4.27534        0.02154        1.56707
H          2.99263       -2.27701       -0.32773
H          4.57190       -1.53435       -2.29553
18 18 18 18 18 18 18 18 18 18 18 18 18 18 18 18 18 18 18 18 18 18 18 18 18 18 18 18 18 18 18 18 18 18 18 18 18 18 18 18 18 18 18 18 18 18 18 18 18
CC1(CC([O-])=O)(C=CC(=O)O1)
InChI=1S/C7H8O4/c1-7(4-5(8)9)3-2-6(10)11-7/h2-3H,4H2,1H3,(H,8,9)/p-1
