20
metacyc CPD-12049  -323.6273792 -323.6273792 -323.6273792 -323.6273792 -323.6273792 -323.6273792 -323.6273792 -323.6273792 -323.6273792 -323.6273792 -323.6273792 -323.6273792 -323.6273792 -323.6273792 -323.6273792
C          0.64823        1.21574       -0.22733
O         -0.70923        1.20632        0.22283
C         -1.44251        0.08394       -0.26930
O         -2.76925        0.17248        0.22782
C         -0.81277       -1.25205        0.17763
O         -0.96372       -1.38766        1.61029
C          0.67003       -1.27819       -0.22034
O          1.30775       -2.44546        0.30197
C          1.38645       -0.02043        0.29086
O          1.35495       -0.03721        1.73320
H          1.10922        2.12393        0.17456
H          0.67414        1.27640       -1.32128
H         -1.48908        0.14663       -1.36220
H         -2.72904       -0.24572        1.10976
H         -1.35327       -2.10049       -0.25515
H         -0.32022       -0.76341        2.01244
H          0.75189       -1.32490       -1.31255
H          1.21370       -2.38235        1.27454
H          2.43800       -0.01911       -0.01440
H          1.54940        0.86799        2.04130
20 20 20 20 20 20 20 20 20 20 20 20 20 20 20 20 20 20 20 20 20 20 20 20 20 20 20 20 20 20 20 20 20 20 20 20 20 20 20 20 20 20 20 20 20 20 20 20 20 20 20 20 20 20 20
C1(OC(O)C(O)C(O)C(O)1)
InChI=1S/C5H10O5/c6-2-1-10-5(9)4(8)3(2)7/h2-9H,1H2/t2-,3-,4+,5-/m1/s1
