26
metacyc CPD-17535  -169.400461488 -169.400461488 -169.400461488 -169.400461488 -169.400461488 -169.400461488 -169.400461488 -169.400461488 -169.400461488 -169.400461488 -169.400461488 -169.400461488 -169.400461488 -169.400461488 -169.400461488
C          1.06021       -0.28536       -0.25566
C          2.50776        0.09819       -0.09126
O          2.82346        1.17583        0.40075
N          3.38273       -0.88351       -0.52911
C          4.77310       -0.87499       -0.47995
C          5.45430       -2.14886       -1.05216
O          4.69908       -3.27520       -0.57984
C          6.83875       -2.24583       -0.52745
O          8.11880       -2.09106       -1.02974
C          7.53615       -0.80573       -0.97731
C          7.72612       -0.15289       -2.31855
O          7.13033       -0.90719       -3.36486
C          7.01043        0.04304        0.11322
O          7.71956        0.68307        0.87171
C          5.50795        0.10452        0.10297
H          0.42832        0.56150        0.03047
H          0.82473       -1.13276        0.39366
H          0.84983       -0.53864       -1.29772
H          2.97234       -1.72563       -0.93139
H          5.40143       -2.17151       -2.14204
H          4.66024       -3.21078        0.39206
H          6.82258       -2.51381        0.52701
H          8.79689       -0.04266       -2.53153
H          7.29500        0.85358       -2.33549
H          7.72774       -1.66033       -3.52579
H          5.09405        0.98330        0.58014
26 26 26 26 26 26 26 26 26 26 26 26 26 26 26 26 26 26 26 26 26 26 26 26 26 26 26 26 26 26 26 26 26 26 26 26 26 26 26 26 26 26 26 26 26 26 26 26 26 26 26 26 26 26 26 26 26 26 26 26 26 26 26 26 26 26 26 26 26 26 26 26 26
CC(=O)NC2(C(O)C1(OC(CO)1C(=O)C=2))
InChI=1S/C9H11NO5/c1-4(12)10-5-2-6(13)9(3-11)8(15-9)7(5)14/h2,7-8,11,14H,3H2,1H3,(H,10,12)/t7-,8+,9-/m0/s1
