18
metacyc CPD-11495  -74.367328112 -74.367328112 -74.367328112 -74.367328112 -74.367328112 -74.367328112 -74.367328112 -74.367328112 -74.367328112 -74.367328112 -74.367328112 -74.367328112 -74.367328112 -74.367328112 -74.367328112
C          1.08797       -0.03391        0.38067
O          0.80688        0.98615        1.08569
O          0.35532       -1.00428        0.04443
C          2.54268       -0.09898       -0.07965
C          2.88246        0.97942       -1.08305
C          2.85691        2.34527       -0.76813
O          2.46680        2.81218        0.45780
C          3.22028        3.31042       -1.70607
C          3.59518        2.92610       -2.99127
C          3.62180        1.57481       -3.32888
C          3.27384        0.60937       -2.38040
H          2.74555       -1.09277       -0.49778
H          3.20015        0.00179        0.79301
H          1.78876        2.17415        0.81574
H          3.18337        4.36018       -1.43211
H          3.85330        3.67984       -3.72791
H          3.90759        1.26792       -4.33062
H          3.29827       -0.44210       -2.65753
18 18 18 18 18 18 18 18 18 18 18 18 18 18 18 18 18 18 18 18 18 18 18 18 18 18 18 18 18 18 18 18 18 18 18 18 18 18 18 18 18 18 18 18 18 18 18 18 18
C(=O)([O-])CC1(=C(O)C=CC=C1)
InChI=1S/C8H8O3/c9-7-4-2-1-3-6(7)5-8(10)11/h1-4,9H,5H2,(H,10,11)/p-1
