19
metacyc CPD-404  -222.50871824 -222.50871824 -222.50871824 -222.50871824 -222.50871824 -222.50871824 -222.50871824 -222.50871824 -222.50871824 -222.50871824 -222.50871824 -222.50871824 -222.50871824 -222.50871824 -222.50871824
C          0.86063        0.13381        0.20034
N          2.29327        0.16547       -0.05673
C          2.81585       -1.17762       -0.51194
C          2.29515       -1.67587       -1.92783
O          2.90730       -1.27993       -2.97103
O          1.32278       -2.50745       -1.89370
C          4.38396       -1.16997       -0.49723
C          5.00496       -1.08973        0.91443
C          6.53206       -1.14996        1.09858
O          7.26270       -1.32934        0.08264
O          6.93022       -1.03433        2.30689
H          0.53961        1.04818        0.71200
H          0.55572       -0.70273        0.83914
H          0.27710        0.07495       -0.72489
H          2.50875       -1.95154        0.20588
H          4.76254       -0.33892       -1.10218
H          4.74630       -2.09071       -0.97615
H          4.59365       -1.90887        1.51809
H          4.67515       -0.15547        1.38743
19 19 19 19 19 19 19 19 19 19 19 19 19 19 19 19 19 19 19 19 19 19 19 19 19 19 19 19 19 19 19 19 19 19 19 19 19 19 19 19 19 19 19 19 19 19 19 19 19 19 19 19
C[N+]C(C(=O)[O-])CCC([O-])=O
InChI=1S/C6H11NO4/c1-7-4(6(10)11)2-3-5(8)9/h4,7H,2-3H2,1H3,(H,8,9)(H,10,11)/p-1/t4-/m0/s1
