24
metacyc CPD-285  -778.8451148 -778.8451148 -778.8451148 -778.8451148 -778.8451148 -778.8451148 -778.8451148 -778.8451148 -778.8451148 -778.8451148 -778.8451148 -778.8451148 -778.8451148 -778.8451148 -778.8451148
C          0.74383        0.06559       -0.24566
C          0.25803       -1.12540        0.59392
C          1.29952       -2.07414        1.20263
C          0.62588       -3.22257        1.97997
C          1.59640       -4.26711        2.58899
C          2.54996       -3.70084        3.65763
O          1.77627       -3.06526        4.71491
C          3.63886       -4.67411        4.26023
O          4.31996       -4.21366        5.23478
O          3.82712       -5.77611        3.66129
C          0.67546       -5.37179        3.16453
O          0.33403       -5.24052        4.38377
O          0.24829       -6.23030        2.33003
O         -0.18446        0.82915       -0.65634
O          1.98326        0.16729       -0.45915
H         -0.41404       -1.70606       -0.05113
H         -0.35795       -0.71464        1.40468
H          1.95533       -1.50042        1.86598
H          1.92802       -2.48944        0.40635
H         -0.06271       -3.73609        1.29466
H         -0.00637       -2.79678        2.77175
H          2.19192       -4.71357        1.77982
H          3.13920       -2.89538        3.20313
H          1.18837       -3.80951        5.00142
24 24 24 24 24 24 24 24 24 24 24 24 24 24 24 24 24 24 24 24 24 24 24 24 24 24 24 24 24 24 24 24 24 24 24 24 24 24 24 24 24 24 24 24 24 24 24 24 24 24 24 24 24 24 24 24 24 24 24 24 24 24 24 24 24 24 24
C(CCCC(C(O)C(=O)[O-])C(=O)[O-])([O-])=O
InChI=1S/C8H12O7/c9-5(10)3-1-2-4(7(12)13)6(11)8(14)15/h4,6,11H,1-3H2,(H,9,10)(H,12,13)(H,14,15)/p-3
