19
metacyc CPD-19410  -358.92113464 -358.92113464 -358.92113464 -358.92113464 -358.92113464 -358.92113464 -358.92113464 -358.92113464 -358.92113464 -358.92113464 -358.92113464 -358.92113464 -358.92113464 -358.92113464 -358.92113464
C          1.27023        0.05465        0.01657
O          2.69882        0.09352       -0.00853
C          3.18335        1.15956       -0.69672
O          2.51377        2.01767       -1.25070
C          4.65898        1.11533       -0.66819
C          5.34251        2.08531       -1.29442
C          6.78829        2.14510       -1.33301
C          7.54247        3.08401       -1.93918
O          7.01461        4.16669       -2.63822
C          9.12662        2.97168       -1.86665
O          9.57009        1.97333       -1.22212
O          9.76678        3.88792       -2.45814
H          0.96075       -0.82608        0.58516
H          0.86967       -0.03144       -0.99925
H          0.86967        0.94497        0.51318
H          5.13957        0.30043       -0.14207
H          4.78616        2.86706       -1.79914
H          7.31609        1.34203       -0.81451
H          6.05250        4.12477       -2.61105
19 19 19 19 19 19 19 19 19 19 19 19 19 19 19 19 19 19 19 19 19 19 19 19 19 19 19 19 19 19 19 19 19 19 19 19 19 19 19 19 19 19 19 19 19 19 19 19 19 19 19 19
COC(=O)C=CC=C(O)C([O-])=O
InChI=1S/C7H8O5/c1-12-6(9)4-2-3-5(8)7(10)11/h2-4,8H,1H3,(H,10,11)/p-1/b4-2+,5-3-
