20
metacyc CPD-12043  -330.154444304 -330.154444304 -330.154444304 -330.154444304 -330.154444304 -330.154444304 -330.154444304 -330.154444304 -330.154444304 -330.154444304 -330.154444304 -330.154444304 -330.154444304 -330.154444304 -330.154444304
C          0.97371       -0.10533        0.08062
O          0.54848       -1.18267       -0.75469
C          2.49656       -0.04654        0.08971
C          3.10806        1.07375        0.92906
O          2.40473        1.28760        2.15380
C          4.49870        0.51956        1.19879
O          5.38678        0.73063        0.08657
C          4.20950       -0.97966        1.37784
O          5.28865       -1.78304        0.94038
O          3.02148       -1.28176        0.62920
H          0.56544       -0.29311        1.07825
H          0.54563        0.82124       -0.31256
H          1.05633       -1.96557       -0.46311
H          2.86015        0.00098       -0.94483
H          3.12306        2.01868        0.37752
H          2.21811        0.43103        2.57910
H          4.97794        0.93855        2.08908
H          4.95630        0.42700       -0.73293
H          3.99673       -1.21551        2.42572
H          5.87919       -1.19638        0.43207
20 20 20 20 20 20 20 20 20 20 20 20 20 20 20 20 20 20 20 20 20 20 20 20 20 20 20 20 20 20 20 20 20 20 20 20 20 20 20 20 20 20 20 20 20 20 20 20 20 20 20 20 20 20 20
C(O)C1(C(O)C(O)C(O)O1)
InChI=1S/C5H10O5/c6-1-2-3(7)4(8)5(9)10-2/h2-9H,1H2/t2-,3-,4+,5-/m1/s1
