17
metacyc CPD-16452  -238.15763136 -238.15763136 -238.15763136 -238.15763136 -238.15763136 -238.15763136 -238.15763136 -238.15763136 -238.15763136 -238.15763136 -238.15763136 -238.15763136 -238.15763136 -238.15763136 -238.15763136
C          0.91215        0.03433        0.08834
O          0.42729       -0.59574        1.07205
O          0.30309        0.57378       -0.88381
C          2.45300        0.12999        0.01909
N          2.82971        1.35732        0.73520
C          3.11796       -1.10521        0.63683
C          4.60575       -1.16528        0.52776
C          5.40308       -2.27440        1.09955
O          4.97722       -3.26785        1.66246
O          6.73854       -1.96865        0.91273
N          6.79745       -0.77753        0.17233
C          5.51653       -0.32652        0.03165
H          2.74861        0.22579       -1.03289
H          2.70826       -2.00077        0.14995
H          2.85130       -1.18641        1.69894
H          7.42692       -0.08570        0.57798
H          5.34336        0.64188       -0.41756
17 17 17 17 17 17 17 17 17 17 17 17 17 17 17 17 17 17 17 17 17 17 17 17 17 17 17 17 17 17 17 17 17 17 17 17 17 17 17 17 17 17 17 17 17 17
C([O-])(=O)C([N+])CC1(C(=O)ONC=1)
InChI=1S/C6H8N2O4/c7-4(5(9)10)1-3-2-8-12-6(3)11/h2,4,8H,1,7H2,(H,9,10)/t4-/m0/s1
