22
metacyc CPD-13059  -694.76144248 -694.76144248 -694.76144248 -694.76144248 -694.76144248 -694.76144248 -694.76144248 -694.76144248 -694.76144248 -694.76144248 -694.76144248 -694.76144248 -694.76144248 -694.76144248 -694.76144248
C          0.80427       -2.26371        1.10305
C          0.09503       -0.98919        0.67719
C         -1.41616       -0.98636        0.74018
C         -1.91696       -0.75297        2.17761
C         -3.45118       -0.59157        2.22463
C         -4.20074       -1.87491        1.83426
O         -5.61242       -1.63473        1.87734
O         -3.85825       -0.24718        3.57166
O         -1.58685       -1.77804        3.12982
O         -1.89465        0.07632       -0.10559
O          0.75177       -0.02346        0.27765
O          0.03155       -3.12410        1.64417
O          2.04740       -2.37364        0.89440
H         -1.77949       -1.92752        0.32045
H         -1.47165        0.17032        2.57058
H         -3.78560        0.23789        1.59426
H         -3.99337       -2.68946        2.53621
H         -3.95139       -2.20672        0.82366
H         -5.73657       -1.06248        2.65963
H         -3.16037       -0.62955        4.14460
H         -1.03595       -2.47459        2.68062
H         -1.11393        0.64561       -0.27660
22 22 22 22 22 22 22 22 22 22 22 22 22 22 22 22 22 22 22 22 22 22 22 22 22 22 22 22 22 22 22 22 22 22 22 22 22 22 22 22 22 22 22 22 22 22 22 22 22 22 22 22 22 22 22 22 22 22 22 22 22
C(C(C(C(C(CO)O)O)O)=O)([O-])=O
InChI=1S/C6H10O7/c7-1-2(8)3(9)4(10)5(11)6(12)13/h2-4,7-10H,1H2,(H,12,13)/p-1/t2-,3+,4-/m0/s1
