14
metacyc CPD-9778  -633.97541184 -633.97541184 -633.97541184 -633.97541184 -633.97541184 -633.97541184 -633.97541184 -633.97541184 -633.97541184 -633.97541184 -633.97541184 -633.97541184 -633.97541184 -633.97541184 -633.97541184
C          0.89725       -0.00595        0.15244
O          0.25654       -0.65680       -0.72559
O          0.46719        0.43784        1.26166
C          2.39494        0.10749       -0.05991
C          2.80280        1.41217       -0.70231
O          2.00088        2.26982       -1.09008
C          4.27955        1.73077       -0.72523
C          5.08883        0.67770       -1.44990
O          4.93483        0.61142       -2.69956
O          5.91612        0.04634       -0.72533
H          2.75018       -0.72297       -0.67682
H          2.88735        0.04204        0.91765
H          4.62031        1.84942        0.30932
H          4.43006        2.69266       -1.22926
14 14 14 14 14 14 14 14 14 14 14 14 14 14 14 14 14 14 14 14 14 14 14 14 14 14 14 14 14 14 14 14 14 14 14 14 14
C([O-])(=O)CC(=O)CC(=O)[O-]
InChI=1S/C5H6O5/c6-3(1-4(7)8)2-5(9)10/h1-2H2,(H,7,8)(H,9,10)/p-2
