20
metacyc CPD-14123  -64.302268424 -64.302268424 -64.302268424 -64.302268424 -64.302268424 -64.302268424 -64.302268424 -64.302268424 -64.302268424 -64.302268424 -64.302268424 -64.302268424 -64.302268424 -64.302268424 -64.302268424
C          0.77228        1.30812       -0.26107
C         -0.68966        1.34847        0.17582
N         -1.31385        2.52467       -0.42958
C         -1.44603        0.06353       -0.23293
O         -2.77041        0.07142        0.31351
C         -0.72678       -1.20806        0.26530
O         -0.84940       -1.28012        1.70260
C          0.73323       -1.25269       -0.19913
O          1.37571       -2.42339        0.27568
C          1.38875        0.04207        0.27469
O          2.29630        0.05626        1.10381
H          1.32619        2.17056        0.12767
H          0.87908        1.30724       -1.35248
H         -0.75128        1.46839        1.26474
H         -1.53935        0.01844       -1.32523
H         -2.71397       -0.33709        1.20141
H         -1.25736       -2.09372       -0.10263
H         -0.10572       -0.82532        2.13863
H          0.78873       -1.27370       -1.29306
H          1.43580       -2.36079        1.24659
20 20 20 20 20 20 20 20 20 20 20 20 20 20 20 20 20 20 20 20 20 20 20 20 20 20 20 20 20 20 20 20 20 20 20 20 20 20 20 20 20 20 20 20 20 20 20 20 20 20 20 20 20 20 20
C1(C([N+])C(O)C(O)C(O)C(=O)1)
InChI=1S/C6H11NO4/c7-2-1-3(8)5(10)6(11)4(2)9/h2,4-6,9-11H,1,7H2/p+1/t2-,4+,5-,6-/m0/s1
