19
metacyc CPD-333  -488.855480576 -488.855480576 -488.855480576 -488.855480576 -488.855480576 -488.855480576 -488.855480576 -488.855480576 -488.855480576 -488.855480576 -488.855480576 -488.855480576 -488.855480576 -488.855480576 -488.855480576
C          2.80189       -0.83035        2.98337
O          2.96113        0.39024        2.69340
O          2.81656       -1.37710        4.12614
C          2.46039       -1.76860        1.82100
C          3.01166       -1.40561        0.44387
C          4.53595       -1.48045        0.31521
C          5.17308       -2.84281        0.58761
C          4.74029       -3.93601       -0.44623
O          5.58506       -4.08657       -1.39433
O          3.68317       -4.58204       -0.21715
O          6.61996       -2.66103        0.45581
H          1.36421       -1.76719        1.75290
H          2.74522       -2.79491        2.07870
H          2.69560       -0.38768        0.18233
H          2.55361       -2.06057       -0.30695
H          4.99453       -0.73439        0.97711
H          4.80904       -1.15966       -0.69969
H          4.99050       -3.18348        1.61067
H          6.78599       -3.10882       -0.40924
19 19 19 19 19 19 19 19 19 19 19 19 19 19 19 19 19 19 19 19 19 19 19 19 19 19 19 19 19 19 19 19 19 19 19 19 19 19 19 19 19 19 19 19 19 19 19 19 19 19 19 19
C([O-])(=O)CCCC(C([O-])=O)O
InChI=1S/C6H10O5/c7-4(6(10)11)2-1-3-5(8)9/h4,7H,1-3H2,(H,8,9)(H,10,11)/p-2
