22
metacyc CPD-16410  -77.138579592 -77.138579592 -77.138579592 -77.138579592 -77.138579592 -77.138579592 -77.138579592 -77.138579592 -77.138579592 -77.138579592 -77.138579592 -77.138579592 -77.138579592 -77.138579592 -77.138579592
C          1.03470        0.17293       -0.12458
C          2.55418        0.05375       -0.08466
O          3.12480        1.25329       -0.60387
C          3.08042       -0.22838        1.33955
O          2.55129       -1.44952        1.85285
C          4.61035       -0.28405        1.39100
C          5.16829       -0.62193        2.77398
O          6.59270       -0.64088        2.68563
C          4.72856        0.40092        3.80879
O          5.38834        1.40182        4.08137
H          0.69874        0.40751       -1.14039
H          0.68958        0.99205        0.51647
H          0.54868       -0.75194        0.19778
H          2.84974       -0.76609       -0.75222
H          2.74288        2.00798       -0.12196
H          2.73453        0.57748        1.99831
H          2.78598       -2.16359        1.23104
H          5.03360        0.66975        1.05118
H          4.97511       -1.04343        0.68695
H          4.85014       -1.61256        3.11208
H          6.88465        0.29157        2.73412
H          3.74711        0.21577        4.27850
22 22 22 22 22 22 22 22 22 22 22 22 22 22 22 22 22 22 22 22 22 22 22 22 22 22 22 22 22 22 22 22 22 22 22 22 22 22 22 22 22 22 22 22 22 22 22 22 22 22 22 22 22 22 22 22 22 22 22 22 22
CC(O)C(O)CC(O)C=O
InChI=1S/C6H12O4/c1-4(8)6(10)2-5(9)3-7/h3-6,8-10H,2H2,1H3/t4-,5-,6-/m1/s1
