24
metacyc CPD-10727  -394.7878052 -394.7878052 -394.7878052 -394.7878052 -394.7878052 -394.7878052 -394.7878052 -394.7878052 -394.7878052 -394.7878052 -394.7878052 -394.7878052 -394.7878052 -394.7878052 -394.7878052
C          0.92821        0.02945       -0.01250
O          0.50942       -0.88295        1.00918
C          2.46401       -0.02901       -0.18851
O          3.06350        0.25808        1.08253
O          2.94722       -1.32227       -0.55290
C          2.61394       -1.74607       -1.88028
C          3.09610       -0.75930       -2.94862
O          4.52969       -0.78659       -3.02212
C          2.60932        0.65866       -2.61350
O          3.17182        1.60350       -3.52794
C          2.99070        1.03375       -1.17818
O          4.43947        1.08328       -1.08213
H          0.61118        1.03477        0.28700
H          0.39512       -0.24463       -0.92564
H          0.24043       -0.35725        1.78291
H          2.73949       -0.47631        1.63891
H          1.53275       -1.90488       -1.94804
H          3.09995       -2.71637       -2.02663
H          2.73551       -1.06079       -3.93743
H          4.86347       -0.38242       -2.19180
H          1.52183        0.70916       -2.73406
H          4.14179        1.49779       -3.43881
H          2.64034        2.03939       -0.92116
H          4.61921        0.99313       -0.12021
24 24 24 24 24 24 24 24 24 24 24 24 24 24 24 24 24 24 24 24 24 24 24 24 24 24 24 24 24 24 24 24 24 24 24 24 24 24 24 24 24 24 24 24 24 24 24 24 24 24 24 24 24 24 24 24 24 24 24 24 24 24 24 24 24 24 24
C(O)C1(O)(OCC(O)C(O)C(O)1)
InChI=1S/C6H12O6/c7-2-6(11)5(10)4(9)3(8)1-12-6/h3-5,7-11H,1-2H2/t3-,4-,5+,6+/m0/s1
