19
metacyc CPD-15381  -7.9445653928 -7.9445653928 -7.9445653928 -7.9445653928 -7.9445653928 -7.9445653928 -7.9445653928 -7.9445653928 -7.9445653928 -7.9445653928 -7.9445653928 -7.9445653928 -7.9445653928 -7.9445653928 -7.9445653928
C          0.89855       -0.02421        0.03723
C          2.42861        0.00282        0.06070
C          2.95290        1.07884        1.00539
O          4.22976        0.62244        1.46584
C          4.31981       -0.72666        1.27796
C          3.01370       -1.25243        0.70011
O          3.11045       -2.33001       -0.20954
O          5.31515       -1.39454        1.50761
C          2.95259        0.22139       -1.37126
H          0.48655       -0.15599        1.04260
H          0.52786       -0.84808       -0.58338
H          0.49541        0.91146       -0.36562
H          2.31396        1.22649        1.88154
H          3.08258        2.04563        0.50740
H          2.40482       -1.58691        1.54838
H          4.04455       -2.39345       -0.48644
H          2.60414        1.18123       -1.77017
H          2.59874       -0.56238       -2.04905
H          4.04721        0.22698       -1.40686
19 19 19 19 19 19 19 19 19 19 19 19 19 19 19 19 19 19 19 19 19 19 19 19 19 19 19 19 19 19 19 19 19 19 19 19 19 19 19 19 19 19 19 19 19 19 19 19 19 19 19 19
CC1(COC(C1O)=O)C
InChI=1S/C6H10O3/c1-6(2)3-9-5(8)4(6)7/h4,7H,3H2,1-2H3/t4-/m1/s1
