18
metacyc CPD-637  -94.450549032 -94.450549032 -94.450549032 -94.450549032 -94.450549032 -94.450549032 -94.450549032 -94.450549032 -94.450549032 -94.450549032 -94.450549032 -94.450549032 -94.450549032 -94.450549032 -94.450549032
C          0.91973        0.03625       -0.10267
C          2.41173       -0.11556        0.03802
C          3.10425       -1.35009        0.11172
C          4.51813       -1.29671        0.15980
C          5.22524       -0.09619        0.17969
C          4.53650        1.10546        0.13243
C          3.14588        1.09406        0.05453
O          5.29083       -2.43596        0.18060
C          2.43465       -2.71614        0.14978
O          1.22843       -2.81524        0.52715
O          3.18520       -3.70306       -0.16445
H          0.35066       -0.88898       -0.10725
H          0.69575        0.53867       -1.05101
H          0.53255        0.65238        0.71673
H          6.30863       -0.11378        0.22690
H          5.07717        2.04555        0.14475
H          2.61605        2.04273        0.00116
H          4.65008       -3.18638        0.03196
18 18 18 18 18 18 18 18 18 18 18 18 18 18 18 18 18 18 18 18 18 18 18 18 18 18 18 18 18 18 18 18 18 18 18 18 18 18 18 18 18 18 18 18 18 18 18 18 18
CC1(C(=C(C=CC=1)O)C([O-])=O)
InChI=1S/C8H8O3/c1-5-3-2-4-6(9)7(5)8(10)11/h2-4,9H,1H3,(H,10,11)/p-1
