24
metacyc CPD-13559  -397.59112704 -397.59112704 -397.59112704 -397.59112704 -397.59112704 -397.59112704 -397.59112704 -397.59112704 -397.59112704 -397.59112704 -397.59112704 -397.59112704 -397.59112704 -397.59112704 -397.59112704
C          0.94538        0.13065        0.16273
O          0.61466        1.49553        0.40447
C          2.46664       -0.03286        0.00052
C          2.89880       -1.48001       -0.27756
O          2.24826       -2.39602        0.60169
C          2.61231       -1.87640       -1.73192
O          3.20209       -3.16213       -1.97347
C          3.16069       -0.84057       -2.71136
O          4.60518       -0.85397       -2.65038
C          2.63597        0.55536       -2.33707
O          3.21626        1.53500       -3.18556
O          2.99508        0.87208       -0.99208
H          0.40223       -0.18147       -0.73336
H          0.57192       -0.46025        1.00512
H          1.23923        2.04115       -0.11181
H          2.91646        0.28486        0.95003
H          3.97580       -1.57449       -0.09010
H          2.37510       -3.28462        0.21023
H          1.53318       -2.00058       -1.87616
H          4.12023       -2.99267       -2.27018
H          2.90403       -1.09839       -3.74265
H          4.86912       -0.26499       -1.91231
H          1.55139        0.62094       -2.46261
H          4.09774        1.20724       -3.43779
24 24 24 24 24 24 24 24 24 24 24 24 24 24 24 24 24 24 24 24 24 24 24 24 24 24 24 24 24 24 24 24 24 24 24 24 24 24 24 24 24 24 24 24 24 24 24 24 24 24 24 24 24 24 24 24 24 24 24 24 24 24 24 24 24 24 24
C(O)C1(C(O)C(O)C(O)C(O)O1)
InChI=1S/C6H12O6/c7-1-2-3(8)4(9)5(10)6(11)12-2/h2-11H,1H2/t2-,3-,4+,5+,6+/m1/s1
