24
metacyc CPD-18461  -397.59112704 -397.59112704 -397.59112704 -397.59112704 -397.59112704 -397.59112704 -397.59112704 -397.59112704 -397.59112704 -397.59112704 -397.59112704 -397.59112704 -397.59112704 -397.59112704 -397.59112704
C          0.96761        0.15406        0.09248
O          0.62706        1.51816        0.33956
C          2.49014        0.00182       -0.06822
C          2.92420       -1.44675       -0.34282
C          2.63355       -1.84553       -1.79572
C          3.17985       -0.81259       -2.78041
O          4.62599       -0.82937       -2.72170
C          2.65817        0.58432       -2.40744
O          3.23922        1.56173       -3.25865
O          3.01625        0.90455       -1.06377
O          3.21327       -3.13353       -2.03751
O          2.27399       -2.35906        0.54037
H          0.42682       -0.15801       -0.80377
H          0.59701       -0.44084        0.93325
H          1.23179        2.06731       -0.18971
H          2.93804        0.32257        0.88053
H          4.00238       -1.54159       -0.15766
H          1.55333       -1.96485       -1.93595
H          2.92094       -1.07277       -3.80920
H          4.89468       -0.24295       -1.98895
H          1.57362        0.65061       -2.53310
H          4.11848        1.23350       -3.51180
H          4.13368       -2.97018       -2.33366
H          2.34287       -3.24280        0.12396
24 24 24 24 24 24 24 24 24 24 24 24 24 24 24 24 24 24 24 24 24 24 24 24 24 24 24 24 24 24 24 24 24 24 24 24 24 24 24 24 24 24 24 24 24 24 24 24 24 24 24 24 24 24 24 24 24 24 24 24 24 24 24 24 24 24 24
C(O)C1(C(C(C(O)C(O)O1)O)O)
InChI=1S/C6H12O6/c7-1-2-3(8)4(9)5(10)6(11)12-2/h2-11H,1H2/t2-,3+,4-,5+,6-/m0/s1
