25
metacyc CPD-3614  -437.79936704 -437.79936704 -437.79936704 -437.79936704 -437.79936704 -437.79936704 -437.79936704 -437.79936704 -437.79936704 -437.79936704 -437.79936704 -437.79936704 -437.79936704 -437.79936704 -437.79936704
C         -1.73743        0.76311       -0.34676
O         -1.55392       -0.64214       -0.05166
C         -0.33148       -0.65033        0.67876
C         -0.30477       -1.58905        1.88803
O          0.96945       -1.49159        2.55416
O         -0.28317        0.68811        1.20116
C         -0.42499        1.53748        0.01608
C          1.14483        1.67906       -0.03787
O          1.56819        2.36401        1.15968
C          1.87067        0.28606       -0.17015
O          2.75505       -0.00105        0.92534
C          0.85220       -0.86656       -0.32631
O          1.48665       -2.14394       -0.22985
H         -2.56671        1.12557        0.27315
H         -2.06428        0.87533       -1.39048
H         -0.48468       -2.62921        1.60350
H         -1.07148       -1.29118        2.61237
H          0.89411       -2.01481        3.37285
H         -0.21674        1.26195       -1.04159
H          1.44612        2.33683       -0.86398
H          1.16243        1.85511        1.89521
H          2.50604        0.30550       -1.06271
H          2.20782       -0.14316        1.72364
H          0.45412       -0.82910       -1.34848
H          2.11244       -2.06494        0.51906
25 25 25 25 25 25 25 25 25 25 25 25 25 25 25 25 25 25 25 25 25 25 25 25 25 25 25 25 25 25 25 25 25 25 25 25 25 25 25 25 25 25 25 25 25 25 25 25 25 25 25 25 25 25 25 25 25 25 25 25 25 25 25 25 25 25 25 25 25 25
C1(OC2(CO)(OC1C(O)C(O)C(O)2))
InChI=1S/C7H12O6/c8-2-7-6(11)5(10)4(9)3(13-7)1-12-7/h3-6,8-11H,1-2H2
