23
metacyc CPD-17571  -462.80048248 -462.80048248 -462.80048248 -462.80048248 -462.80048248 -462.80048248 -462.80048248 -462.80048248 -462.80048248 -462.80048248 -462.80048248 -462.80048248 -462.80048248 -462.80048248 -462.80048248
C          0.95509        0.11314       -0.00394
N          0.50499        1.47024       -0.46808
O         -0.16161        2.15162        0.31956
O          0.79007        1.79531       -1.63001
C          2.47922        0.06786       -0.01053
C          3.03760       -1.27913        0.47568
N          2.56191       -2.36689       -0.47409
O          2.92642       -2.30442       -1.65709
O          1.77863       -3.21175       -0.01951
C          4.57606       -1.33687        0.51009
C          5.23336       -0.31940        1.44195
C          4.71418       -0.53277        2.85953
O          5.41382       -1.29026        3.58067
O          3.61111        0.03657        3.09622
H          0.50204       -0.59954       -0.70006
H          0.54617       -0.04634        0.99833
H          2.84417        0.87520        0.63462
H          2.86282        0.29026       -1.01531
H          2.61245       -1.54716        1.44941
H          4.98104       -1.17668       -0.49780
H          4.88977       -2.34736        0.80556
H          5.03117        0.70743        1.11904
H          6.32186       -0.44593        1.42055
23 23 23 23 23 23 23 23 23 23 23 23 23 23 23 23 23 23 23 23 23 23 23 23 23 23 23 23 23 23 23 23 23 23 23 23 23 23 23 23 23 23 23 23 23 23 23 23 23 23 23 23 23 23 23 23 23 23 23 23 23 23 23 23
C([N+]([O-])=O)CC([N+]([O-])=O)CCC([O-])=O
InChI=1S/C6H10N2O6/c9-6(10)2-1-5(8(13)14)3-4-7(11)12/h5H,1-4H2,(H,9,10)/p-1
