10
metacyc CPD-20115  -108.760552864 -108.760552864 -108.760552864 -108.760552864 -108.760552864 -108.760552864 -108.760552864 -108.760552864 -108.760552864 -108.760552864 -108.760552864 -108.760552864 -108.760552864 -108.760552864 -108.760552864
C          1.17576        0.01414       -0.01819
C          2.67683        0.01533        0.04012
N          3.20238        0.05806        1.30342
O          4.60989        0.06285        1.40552
O          3.38504       -0.01966       -0.96390
H          0.73399        0.04980        0.98154
H          0.83778       -0.89851       -0.51614
H          0.83872        0.88967       -0.57943
H          2.67211        0.09348        2.16606
H          4.88731        0.03006        0.46314
10 10 10 10 10 10 10 10 10 10 10 10 10 10 10 10 10 10 10 10 10 10 10 10 10
CC(NO)=O
InChI=1S/C2H5NO2/c1-2(4)3-5/h5H,1H3,(H,3,4)
