19
metacyc CPD-17655  -233.526729952 -233.526729952 -233.526729952 -233.526729952 -233.526729952 -233.526729952 -233.526729952 -233.526729952 -233.526729952 -233.526729952 -233.526729952 -233.526729952 -233.526729952 -233.526729952 -233.526729952
C          3.01945        1.21550       -0.82642
O          4.23607        1.15423       -1.15334
O          2.15168        2.10962       -1.09711
C          2.43920        0.03207        0.01332
C          3.04296       -0.14129        1.38714
C          3.52745        0.94765        2.12695
C          4.06464        0.74926        3.39775
O          4.55935        1.79705        4.12129
C          4.11367       -0.51789        3.96403
C          3.61357       -1.60581        3.25168
C          3.07725       -1.41730        1.97478
O          1.01131        0.22373        0.18600
H          2.57396       -0.87926       -0.58130
H          3.48589        1.94436        1.69467
H          4.50509        2.58125        3.54798
H          4.53667       -0.65498        4.95326
H          3.63805       -2.59993        3.68660
H          2.67691       -2.26876        1.42943
H          0.87172        1.07488       -0.29824
19 19 19 19 19 19 19 19 19 19 19 19 19 19 19 19 19 19 19 19 19 19 19 19 19 19 19 19 19 19 19 19 19 19 19 19 19 19 19 19 19 19 19 19 19 19 19 19 19 19 19 19
C(=O)([O-])C(C1(C=C(O)C=CC=1))O
InChI=1S/C8H8O4/c9-6-3-1-2-5(4-6)7(10)8(11)12/h1-4,7,9-10H,(H,11,12)/p-1
