20
metacyc CPD-15699  -321.4516992 -321.4516992 -321.4516992 -321.4516992 -321.4516992 -321.4516992 -321.4516992 -321.4516992 -321.4516992 -321.4516992 -321.4516992 -321.4516992 -321.4516992 -321.4516992 -321.4516992
C          2.84714       -0.77169       -1.25323
H          2.84509       -0.19726       -2.19450
O          3.16455       -1.96333       -1.23734
C          2.37858       -0.01553       -0.02172
O          0.95000       -0.01112       -0.03244
C          2.89351       -0.67265        1.27492
O          2.37981       -2.00916        1.39026
C          4.42563       -0.63154        1.37893
O          4.85238        0.73810        1.35663
C          4.94991       -1.31522        2.64640
O          6.37401       -1.16496        2.69035
H          2.72625        1.01882       -0.10521
H          0.67288       -0.86205        0.36226
H          2.46468       -0.11435        2.11665
H          2.65416       -2.49730        0.58249
H          4.89633       -1.12123        0.51952
H          5.55772        0.82138        2.03066
H          4.70695       -2.38136        2.67613
H          4.55320       -0.83078        3.54342
H          6.74340       -1.68734        1.95459
20 20 20 20 20 20 20 20 20 20 20 20 20 20 20 20 20 20 20 20 20 20 20 20 20 20 20 20 20 20 20 20 20 20 20 20 20 20 20 20 20 20 20 20 20 20 20 20 20 20 20 20 20 20 20
[CH](=O)C(O)C(O)C(O)CO
InChI=1S/C5H10O5/c6-1-3(8)5(10)4(9)2-7/h1,3-5,7-10H,2H2/t3-,4-,5+/m0/s1
