23
metacyc CPD-10329  -246.00480704 -246.00480704 -246.00480704 -246.00480704 -246.00480704 -246.00480704 -246.00480704 -246.00480704 -246.00480704 -246.00480704 -246.00480704 -246.00480704 -246.00480704 -246.00480704 -246.00480704
C          0.94392       -0.06459        0.09855
C          2.45529       -0.14244       -0.10018
O          2.87719       -1.46306       -0.46473
C          2.51070       -1.87498       -1.78148
C          3.01789       -0.90953       -2.86796
C          2.58914        0.52632       -2.53257
C          3.00916        0.88735       -1.09991
O          4.45691        0.85887       -1.05540
O          3.17796        1.44850       -3.45568
O          4.46042       -1.01137       -2.94833
O          3.07000       -3.16375       -2.00399
H          0.61994       -0.83299        0.80801
H          0.38786       -0.24044       -0.82645
H          0.65208        0.91522        0.48806
H          2.91996        0.04591        0.87486
H          1.42309       -1.98291       -1.83481
H          2.65184       -1.20924       -3.85600
H          1.50366        0.61832       -2.64089
H          2.70361        1.90724       -0.84564
H          4.72326        0.82267       -0.11795
H          4.14482        1.34314       -3.34875
H          4.80993       -0.53961       -2.16081
H          3.97197       -2.98300       -2.33343
23 23 23 23 23 23 23 23 23 23 23 23 23 23 23 23 23 23 23 23 23 23 23 23 23 23 23 23 23 23 23 23 23 23 23 23 23 23 23 23 23 23 23 23 23 23 23 23 23 23 23 23 23 23 23 23 23 23 23 23 23 23 23 23
CC1(OC(C(C(C1O)O)O)O)
InChI=1S/C6H12O5/c1-2-3(7)4(8)5(9)6(10)11-2/h2-10H,1H3/t2-,3+,4+,5-,6+/m0/s1
