16
metacyc CPD-20100  -141.84193044 -141.84193044 -141.84193044 -141.84193044 -141.84193044 -141.84193044 -141.84193044 -141.84193044 -141.84193044 -141.84193044 -141.84193044 -141.84193044 -141.84193044 -141.84193044 -141.84193044
C          0.99691        0.10614        0.23568
O          0.38868        0.54647        1.38058
N         -0.91218        0.01180        1.45282
C         -1.57446        0.26519        2.61200
H         -1.08076        1.02821        3.23533
O         -2.62677       -0.26737        2.94364
C          2.32660        0.10860        0.08356
C          3.05077       -0.39806       -1.13983
C          2.78493       -1.90413       -1.42490
O          1.58334       -2.25171       -1.63886
O          3.81823       -2.64151       -1.38038
N          2.70131        0.36391       -2.34492
H          0.33988       -0.25489       -0.54760
H         -1.14464       -0.79968        0.89050
H          2.95239        0.46165        0.89650
H          4.12620       -0.26416       -0.97096
16 16 16 16 16 16 16 16 16 16 16 16 16 16 16 16 16 16 16 16 16 16 16 16 16 16 16 16 16 16 16 16 16 16 16 16 16 16 16 16 16 16 16
C(ON[CH]=O)=CC(C(=O)[O-])[N+]
InChI=1S/C5H8N2O4/c6-4(5(9)10)1-2-11-7-3-8/h1-4H,6H2,(H,7,8)(H,9,10)/b2-1+/t4-/m0/s1
