24
metacyc CPD-16933  -396.58696704 -396.58696704 -396.58696704 -396.58696704 -396.58696704 -396.58696704 -396.58696704 -396.58696704 -396.58696704 -396.58696704 -396.58696704 -396.58696704 -396.58696704 -396.58696704 -396.58696704
C          0.95132       -0.46476       -0.37698
O         -0.01770       -0.28530        0.65088
C          2.35043       -0.00781        0.05967
O          2.25524        1.38502        0.41660
C          2.98614       -0.76713        1.23980
H          3.96169       -0.30097        1.43034
O          2.23055       -0.56583        2.44973
C          2.36265       -1.73946        3.24065
O          3.41363       -1.56004        4.18079
C          2.68504       -2.91320        2.31555
O          3.68112       -3.80022        2.84454
C          3.16766       -2.26733        1.02270
O          4.54537       -2.56020        0.77395
H          0.61892        0.12413       -1.23972
H          0.94101       -1.51657       -0.67215
H         -0.17195        0.67640        0.70791
H          3.01958       -0.07536       -0.80620
H          1.97266        1.39475        1.35317
H          1.43845       -1.91127        3.80055
H          4.00897       -0.90997        3.76884
H          1.77431       -3.48883        2.11920
H          3.89121       -3.45508        3.73957
H          2.60146       -2.65207        0.17123
H          4.74925       -3.34270        1.33163
24 24 24 24 24 24 24 24 24 24 24 24 24 24 24 24 24 24 24 24 24 24 24 24 24 24 24 24 24 24 24 24 24 24 24 24 24 24 24 24 24 24 24 24 24 24 24 24 24 24 24 24 24 24 24 24 24 24 24 24 24 24 24 24 24 24 24
C(O)C(O)[CH]1(OC(O)C(O)C(O)1)
InChI=1S/C6H12O6/c7-1-2(8)5-3(9)4(10)6(11)12-5/h2-11H,1H2/t2-,3+,4-,5-,6+/m1/s1
