27
metacyc CPD-3582  -250.34679488 -250.34679488 -250.34679488 -250.34679488 -250.34679488 -250.34679488 -250.34679488 -250.34679488 -250.34679488 -250.34679488 -250.34679488 -250.34679488 -250.34679488 -250.34679488 -250.34679488
C          2.61406        1.22583       -0.22429
O          2.10461       -0.09242       -0.04677
C          3.09879       -1.08337       -0.30608
O          4.16146       -0.99587        0.66460
C          3.69003       -1.26707        2.00014
C          4.80930       -0.90758        2.98019
O          5.15098        0.47006        2.81547
C          3.25811       -2.73784        2.07160
O          4.30873       -3.62624        1.62780
C          2.07021       -2.92658        1.10998
O          1.66108       -4.30009        1.12643
C          2.45869       -2.49579       -0.31964
O          3.37950       -3.44983       -0.88975
H          1.84996        1.93504        0.10296
H          2.83694        1.40717       -1.27962
H          3.51077        1.39300        0.38036
H          3.54914       -0.89914       -1.28979
H          2.84221       -0.60662        2.22121
H          5.71856       -1.48301        2.79912
H          4.48863       -1.05925        4.01222
H          5.30311        0.59384        1.85841
H          2.98102       -3.03299        3.08869
H          5.17116       -3.22813        1.83967
H          1.21814       -2.33082        1.45688
H          2.43596       -4.80640        0.81152
H          1.56732       -2.50863       -0.95648
H          4.07229       -3.60252       -0.21384
27 27 27 27 27 27 27 27 27 27 27 27 27 27 27 27 27 27 27 27 27 27 27 27 27 27 27 27 27 27 27 27 27 27 27 27 27 27 27 27 27 27 27 27 27 27 27 27 27 27 27 27 27 27 27 27 27 27 27 27 27 27 27 27 27 27 27 27 27 27 27 27 27 27 27 27
COC1(OC(CO)C(O)C(O)C(O)1)
InChI=1S/C7H14O6/c1-12-7-6(11)5(10)4(9)3(2-8)13-7/h3-11H,2H2,1H3/t3-,4-,5+,6-,7+/m1/s1
