16
metacyc CPD-15332  -200.097774944 -200.097774944 -200.097774944 -200.097774944 -200.097774944 -200.097774944 -200.097774944 -200.097774944 -200.097774944 -200.097774944 -200.097774944 -200.097774944 -200.097774944 -200.097774944 -200.097774944
C         -0.28910       -0.62948       -0.00021
N         -1.57750       -1.09869        0.00308
C         -2.30577       -0.01724        0.00165
O         -3.61978       -0.03248        0.00351
N         -1.57237        1.13095       -0.00215
C         -0.25786        0.75958       -0.00357
C          0.95902        1.40105       -0.00734
O          1.12880        2.75865       -0.01095
N          2.07827        0.66709       -0.00773
C          1.93211       -0.66433       -0.00426
O          3.11288       -1.34056       -0.00510
N          0.81641       -1.39322       -0.00040
H         -3.81232       -0.98974        0.00574
H         -1.96435        2.06041       -0.00378
H          0.25943        3.18076       -0.01021
H          3.71897       -0.58130       -0.00827
16 16 16 16 16 16 16 16 16 16 16 16 16 16 16 16 16 16 16 16 16 16 16 16 16 16 16 16 16 16 16 16 16 16 16 16 16 16 16 16 16 16 16
C12(N=C(O)NC=1C(O)=NC(O)=N2)
InChI=1S/C5H4N4O3/c10-3-1-2(7-4(11)6-1)8-5(12)9-3/h(H4,6,7,8,9,10,11,12)
