21
metacyc CPD-13395  -171.157720568 -171.157720568 -171.157720568 -171.157720568 -171.157720568 -171.157720568 -171.157720568 -171.157720568 -171.157720568 -171.157720568 -171.157720568 -171.157720568 -171.157720568 -171.157720568 -171.157720568
C          0.73486       -0.14000       -0.49208
N          0.15628        1.13989       -0.10428
C          2.20696       -0.16005       -0.12247
O          2.66652       -0.98075        0.66802
N          2.96997        0.73844       -0.81966
C          4.44538        0.83237       -0.82150
C          5.13936       -0.45504       -1.28013
C          4.90391       -0.90358       -2.71489
N          3.76045       -0.49553       -3.33515
O          5.64348       -1.70780       -3.28281
C          4.93949        1.96419       -1.77037
O          4.01650        2.40551       -2.53258
O          6.15258        2.28934       -1.69116
H          0.62794       -0.30055       -1.57021
H          0.22422       -0.95430        0.02920
H          2.53011        1.49811       -1.34385
H          4.74498        1.06911        0.20565
H          4.84923       -1.29298       -0.63728
H          6.22507       -0.33344       -1.16918
H          3.42013        0.43770       -3.09871
H          3.72046       -0.71788       -4.31863
21 21 21 21 21 21 21 21 21 21 21 21 21 21 21 21 21 21 21 21 21 21 21 21 21 21 21 21 21 21 21 21 21 21 21 21 21 21 21 21 21 21 21 21 21 21 21 21 21 21 21 21 21 21 21 21 21 21
C([N+])C(=O)NC(CC(N)=O)C([O-])=O
InChI=1S/C6H11N3O4/c7-2-5(11)9-3(6(12)13)1-4(8)10/h3H,1-2,7H2,(H2,8,10)(H,9,11)(H,12,13)/t3-/m0/s1
