23
metacyc CPD-10224  -165.462066472 -165.462066472 -165.462066472 -165.462066472 -165.462066472 -165.462066472 -165.462066472 -165.462066472 -165.462066472 -165.462066472 -165.462066472 -165.462066472 -165.462066472 -165.462066472 -165.462066472
C          0.87731        0.21797        0.19440
O          0.51111        1.57571        0.43561
C          2.40394        0.09276        0.02649
C          2.87067       -1.35067       -0.24643
O          2.22782       -2.22666        0.68259
C          2.58376       -1.74667       -1.70766
N          3.14840       -3.06930       -1.97696
C          3.11973       -0.69648       -2.68729
O          4.56034       -0.60653       -2.66067
C          2.54732        0.68055       -2.30781
O          3.08528        1.68129       -3.15735
O          2.90085        1.00727       -0.96973
H          0.33917       -0.11032       -0.69835
H          0.52081       -0.37897        1.03829
H          1.13115        2.12778       -0.06913
H          2.84734        0.42003        0.97547
H          3.95049       -1.40736       -0.06380
H          2.02174       -3.06865        0.22892
H          1.50036       -1.84404       -1.84128
H          2.84797       -0.94682       -3.72189
H          4.81923       -0.13725       -1.84292
H          1.46106        0.70591       -2.42726
H          3.99045        1.38779       -3.38075
23 23 23 23 23 23 23 23 23 23 23 23 23 23 23 23 23 23 23 23 23 23 23 23 23 23 23 23 23 23 23 23 23 23 23 23 23 23 23 23 23 23 23 23 23 23 23 23 23 23 23 23 23 23 23 23 23 23 23 23 23 23 23 23
C(O)C1(C(O)C([N+])C(O)C(O)O1)
InChI=1S/C6H13NO5/c7-3-4(9)2(1-8)12-6(11)5(3)10/h2-6,8-11H,1,7H2/p+1/t2-,3+,4-,5-,6+/m1/s1
