12
metacyc CPD-8147  -438.012851456 -438.012851456 -438.012851456 -438.012851456 -438.012851456 -438.012851456 -438.012851456 -438.012851456 -438.012851456 -438.012851456 -438.012851456 -438.012851456 -438.012851456 -438.012851456 -438.012851456
C          1.06490       -0.06881        0.07815
C          0.30434       -0.08291       -1.23606
C          1.28280       -0.09685       -2.38882
N          0.50986       -0.10724       -3.66967
O          0.22287       -1.21094       -4.15677
O          0.21894        0.98847       -4.17225
O          0.32678       -0.05369        1.10150
O          2.32291       -0.07382       -0.00314
H         -0.34151        0.80225       -1.28197
H         -0.34315       -0.96772       -1.26219
H          1.91694       -0.99041       -2.39726
H          1.92186        0.79284       -2.41516
12 12 12 12 12 12 12 12 12 12 12 12 12 12 12 12 12 12 12 12 12 12 12 12 12 12 12 12 12 12 12
C(CC[N+](=O)[O-])(=O)[O-]
InChI=1S/C3H5NO4/c5-3(6)1-2-4(7)8/h1-2H2,(H,5,6)/p-1
