19
metacyc CPD-234  -541.37880576 -541.37880576 -541.37880576 -541.37880576 -541.37880576 -541.37880576 -541.37880576 -541.37880576 -541.37880576 -541.37880576 -541.37880576 -541.37880576 -541.37880576 -541.37880576 -541.37880576
C          1.11327       -0.12006        0.13087
C          2.59854        0.05256        0.11886
C          3.23847        1.30415        0.14031
C          4.64531        1.37813        0.14665
C          5.36837        0.16201        0.13199
C          4.63154       -1.02259        0.08947
N          3.27823       -1.11817        0.08261
C          6.86016        0.00542        0.19762
O          7.50310        0.67464        1.07199
O          7.36136       -0.93674       -0.50607
C          5.34033        2.71880        0.05618
O          5.04609        3.60173        0.92519
O          6.06607        2.91874       -0.97428
O          2.50175        2.46048        0.14096
H          0.55225        0.81648        0.19073
H          0.82052       -0.72897        0.99520
H          0.79654       -0.64231       -0.78036
H          5.15278       -1.97779        0.06926
H          1.69800        2.32440       -0.37186
19 19 19 19 19 19 19 19 19 19 19 19 19 19 19 19 19 19 19 19 19 19 19 19 19 19 19 19 19 19 19 19 19 19 19 19 19 19 19 19 19 19 19 19 19 19 19 19 19 19 19 19
CC1(=C(C(=C(C=N1)C([O-])=O)C([O-])=O)O)
InChI=1S/C8H7NO5/c1-3-6(10)5(8(13)14)4(2-9-3)7(11)12/h2,10H,1H3,(H,11,12)(H,13,14)/p-2
