23
metacyc CPD-16566  -242.40658796 -242.40658796 -242.40658796 -242.40658796 -242.40658796 -242.40658796 -242.40658796 -242.40658796 -242.40658796 -242.40658796 -242.40658796 -242.40658796 -242.40658796 -242.40658796 -242.40658796
C          0.93045        0.03287        0.04468
C          2.45699       -0.00374        0.05439
O          2.96835        1.29060       -0.26180
C          3.01117       -0.46962        1.41386
O          2.53266       -1.77878        1.76524
C          4.54913       -0.44951        1.50959
O          4.92602       -0.78622        2.85126
C          5.21657       -1.47173        0.59055
O          4.57401       -2.30045       -0.06085
C          6.73917       -1.47651        0.58257
O          7.25514       -2.32450       -0.43451
H          0.56402        0.37664       -0.92820
H          0.54949        0.73826        0.79166
H          0.50200       -0.95370        0.24655
H          2.77389       -0.68384       -0.74212
H          2.41511        1.95676        0.18487
H          2.63325        0.20311        2.19501
H          2.80564       -2.38038        1.03891
H          4.94497        0.54550        1.28051
H          4.31218       -1.49673        3.13180
H          7.09789       -1.84004        1.54988
H          7.11233       -0.46486        0.40682
H          6.58121       -3.01684       -0.58375
23 23 23 23 23 23 23 23 23 23 23 23 23 23 23 23 23 23 23 23 23 23 23 23 23 23 23 23 23 23 23 23 23 23 23 23 23 23 23 23 23 23 23 23 23 23 23 23 23 23 23 23 23 23 23 23 23 23 23 23 23 23 23 23
CC(O)C(O)C(O)C(=O)CO
InChI=1S/C6H12O5/c1-3(8)5(10)6(11)4(9)2-7/h3,5-8,10-11H,2H2,1H3/t3-,5-,6-/m0/s1
