16
metacyc CPD-18974  -475.12022864 -475.12022864 -475.12022864 -475.12022864 -475.12022864 -475.12022864 -475.12022864 -475.12022864 -475.12022864 -475.12022864 -475.12022864 -475.12022864 -475.12022864 -475.12022864 -475.12022864
C          1.06598        0.78845        1.50431
H          1.44778        1.20072        0.55907
C          0.21824       -0.44647        1.41930
C         -1.15482       -0.22973        0.84026
C         -1.33861        0.28705       -0.56667
C         -1.00732       -0.66807       -1.67470
O         -1.85961       -1.29075       -2.31089
C          0.45759       -0.84250       -2.06212
O          1.27199       -0.23933       -1.29217
O          0.74512       -1.53556       -3.08210
O         -2.14984       -0.46177        1.53763
O          1.33142        1.34756        2.56856
H          0.08517       -0.81328        2.44659
H          0.74302       -1.23989        0.88521
H         -0.80494        1.23144       -0.69571
H         -2.40252        0.53651       -0.67935
16 16 16 16 16 16 16 16 16 16 16 16 16 16 16 16 16 16 16 16 16 16 16 16 16 16 16 16 16 16 16 16 16 16 16 16 16 16 16 16 16 16 16
[CH](CC(CC(=O)C([O-])=O)=O)=O
InChI=1S/C6H6O5/c7-2-1-4(8)3-5(9)6(10)11/h2H,1,3H2,(H,10,11)/p-1
