18
metacyc CPD-12374  -339.97753072 -339.97753072 -339.97753072 -339.97753072 -339.97753072 -339.97753072 -339.97753072 -339.97753072 -339.97753072 -339.97753072 -339.97753072 -339.97753072 -339.97753072 -339.97753072 -339.97753072
C          0.85676        0.02232       -0.07078
O          0.26669       -1.09421       -0.07289
O          0.39057        1.20185       -0.07003
C          2.41480       -0.03463       -0.06918
N          3.22790        1.10663       -0.06733
C          4.55031        0.78517       -0.06818
C          4.55892       -0.67733       -0.06933
C          3.17922       -1.14819       -0.07008
C          5.66888       -1.41440       -0.06981
C          6.96443       -0.70274       -0.06919
O          8.01708       -1.32866       -0.06821
C          6.95482        0.83509       -0.06991
O          8.00039        1.47303       -0.07169
C          5.65136        1.53104       -0.06851
H          2.78234        2.01642       -0.06891
H          2.82039       -2.16382       -0.07178
H          5.67536       -2.49443       -0.07056
H          5.64136        2.61024       -0.06802
18 18 18 18 18 18 18 18 18 18 18 18 18 18 18 18 18 18 18 18 18 18 18 18 18 18 18 18 18 18 18 18 18 18 18 18 18 18 18 18 18 18 18 18 18 18 18 18 18
C([O-])(=O)C1(NC2(C(C=1)=CC(=O)C(=O)C=2))
InChI=1S/C9H5NO4/c11-7-2-4-1-6(9(13)14)10-5(4)3-8(7)12/h1-3,10H,(H,13,14)/p-1
