17
metacyc CPD-18294  -566.19461184 -566.19461184 -566.19461184 -566.19461184 -566.19461184 -566.19461184 -566.19461184 -566.19461184 -566.19461184 -566.19461184 -566.19461184 -566.19461184 -566.19461184 -566.19461184 -566.19461184
C          1.05559       -0.01721        0.12961
O          0.41020       -1.11503        0.11903
O          0.51671        1.13826        0.21061
C          2.57216       -0.06776        0.03266
C          3.30651        1.12703        0.02339
C          4.69790        1.11068       -0.03983
C          5.38599       -0.10166       -0.10012
C          4.70496       -1.32601       -0.14000
C          5.40987       -2.66405       -0.30614
O          4.87179       -3.68252        0.23577
O          6.47693       -2.69502       -1.00476
C          3.28673       -1.28248       -0.05328
O          6.75090       -0.02510       -0.07478
H          2.77839        2.07519        0.08520
H          5.24169        2.04834       -0.01202
H          2.73448       -2.22252       -0.05949
H          6.99058        0.54801       -0.81761
17 17 17 17 17 17 17 17 17 17 17 17 17 17 17 17 17 17 17 17 17 17 17 17 17 17 17 17 17 17 17 17 17 17 17 17 17 17 17 17 17 17 17 17 17 17
C(=O)([O-])C1(C=CC(=C(C(=O)[O-])C=1)O)
InChI=1S/C8H6O5/c9-6-2-1-4(7(10)11)3-5(6)8(12)13/h1-3,9H,(H,10,11)(H,12,13)/p-2
