20
metacyc CPD-12045  -330.154444304 -330.154444304 -330.154444304 -330.154444304 -330.154444304 -330.154444304 -330.154444304 -330.154444304 -330.154444304 -330.154444304 -330.154444304 -330.154444304 -330.154444304 -330.154444304 -330.154444304
C          1.02312        0.01515        0.14247
O          0.59865       -1.06040       -0.69588
C          2.54581        0.07630        0.15023
C          3.15697        1.19505        0.99292
O          2.45389        1.40441        2.21850
C          4.54835        0.64003        1.26004
O          5.43550        0.85299        0.14783
C          4.25889       -0.85935        1.43627
O          5.34006       -1.66107        1.00127
O          3.07323       -1.16028        0.68415
H          0.61597       -0.17568        1.13981
H          0.59358        0.94217       -0.24833
H          1.10784       -1.84373       -0.40688
H          2.90831        0.12849       -0.88385
H          3.17119        2.14154        0.44431
H          2.26792        0.54681        2.64124
H          5.02826        1.05619        2.15066
H          5.00516        0.54959       -0.67183
H          4.04325       -1.09718        2.48301
H          5.93212       -1.07328        0.49592
20 20 20 20 20 20 20 20 20 20 20 20 20 20 20 20 20 20 20 20 20 20 20 20 20 20 20 20 20 20 20 20 20 20 20 20 20 20 20 20 20 20 20 20 20 20 20 20 20 20 20 20 20 20 20
C(O)C1(C(O)C(O)C(O)O1)
InChI=1S/C5H10O5/c6-1-2-3(7)4(8)5(9)10-2/h2-9H,1H2/t2-,3-,4+,5+/m0/s1
