28
metacyc CPD-12339  -464.02367488 -464.02367488 -464.02367488 -464.02367488 -464.02367488 -464.02367488 -464.02367488 -464.02367488 -464.02367488 -464.02367488 -464.02367488 -464.02367488 -464.02367488 -464.02367488 -464.02367488
C          2.49990       -1.53405        0.22743
O          1.48538       -2.17459       -0.54136
C          2.40874       -0.00918        0.06177
C          2.78225        0.45432       -1.36653
H          3.76817        0.01956       -1.57988
O          1.93255       -0.07808       -2.39857
C          0.64393        0.53124       -2.52257
O          0.05866        0.01593       -3.71895
C          0.66941        2.07342       -2.61575
C          1.55328        2.66813       -1.51472
C          2.92357        1.97903       -1.52730
O          3.53475        2.26220       -2.81506
O          1.71767        4.07763       -1.71621
O          1.15939        2.45114       -3.92790
O          1.09052        0.40763        0.42152
H          3.48075       -1.92524       -0.05786
H          2.31150       -1.80079        1.27351
H          1.64795       -1.96148       -1.48435
H          3.10202        0.45709        0.77294
H          0.00873        0.20384       -1.69914
H          0.30256        0.66338       -4.41109
H         -0.34771        2.47783       -2.56533
H          1.07112        2.55571       -0.54212
H          3.58585        2.40645       -0.76768
H          4.18910        1.56500       -3.00425
H          2.06922        4.18023       -2.62241
H          2.13655        2.34482       -3.89477
H          0.52336       -0.39134        0.36692
28 28 28 28 28 28 28 28 28 28 28 28 28 28 28 28 28 28 28 28 28 28 28 28 28 28 28 28 28 28 28 28 28 28 28 28 28 28 28 28 28 28 28 28 28 28 28 28 28 28 28 28 28 28 28 28 28 28 28 28 28 28 28 28 28 28 28 28 28 28 28 28 28 28 28 28 28 28 28
C(O)C([CH]1(OC(O)C(C(C1O)O)O))O
InChI=1S/C7H14O7/c8-1-2(9)6-4(11)3(10)5(12)7(13)14-6/h2-13H,1H2/t2-,3-,4-,5-,6+,7-/m0/s1
