29
metacyc CPD-15681  -93.44206696 -93.44206696 -93.44206696 -93.44206696 -93.44206696 -93.44206696 -93.44206696 -93.44206696 -93.44206696 -93.44206696 -93.44206696 -93.44206696 -93.44206696 -93.44206696 -93.44206696
C          0.98580        0.05982        0.16523
C          2.50204       -0.00519       -0.03495
C          3.01838       -1.40208       -0.41645
O          2.52389       -2.39064        0.48724
C          2.67783       -1.73615       -1.88030
C          3.15123       -0.61636       -2.83554
C          2.57795        0.72829       -2.31847
O          3.03893        1.81609       -3.10206
O          2.95393        0.98018       -0.97209
N          4.62501       -0.57722       -2.92924
C          5.45025       -1.25754       -3.77146
C          4.88172       -2.11284       -4.87306
O          6.66606       -1.13999       -3.61983
O          3.21751       -3.01087       -2.24387
H          0.66858       -0.57942        0.99501
H          0.43458       -0.25470       -0.72504
H          0.67555        1.08811        0.38157
H          2.94919        0.26344        0.93095
H          4.11024       -1.41254       -0.30640
H          1.81503       -2.89437        0.04871
H          1.59076       -1.84726       -1.98215
H          2.77475       -0.79500       -3.84777
H          1.48794        0.72679       -2.40593
H          3.98764        1.88590       -2.90853
H          5.13180       -0.06202       -2.21540
H          3.83706       -2.38045       -4.72044
H          5.45219       -3.04535       -4.91923
H          4.97791       -1.58321       -5.82414
H          4.14810       -3.02979       -1.95929
29 29 29 29 29 29 29 29 29 29 29 29 29 29 29 29 29 29 29 29 29 29 29 29 29 29 29 29 29 29 29 29 29 29 29 29 29 29 29 29 29 29 29 29 29 29 29 29 29 29 29 29 29 29 29 29 29 29 29 29 29 29 29 29 29 29 29 29 29 29 29 29 29 29 29 29 29 29 29 29 29 29
CC1(C(O)C(C(C(O)O1)NC(C)=O)O)
InChI=1S/C8H15NO5/c1-3-6(11)7(12)5(8(13)14-3)9-4(2)10/h3,5-8,11-13H,1-2H3,(H,9,10)/t3-,5-,6-,7-,8-/m0/s1
