26
metacyc CPD-369  -341.59983488 -341.59983488 -341.59983488 -341.59983488 -341.59983488 -341.59983488 -341.59983488 -341.59983488 -341.59983488 -341.59983488 -341.59983488 -341.59983488 -341.59983488 -341.59983488 -341.59983488
C          1.05864       -0.07565       -0.15619
C          0.52052       -0.89099        1.02235
C          1.03548       -0.33028        2.38540
C          0.51876       -1.08658        3.63308
C          1.02662       -0.43843        4.93414
O          0.37622        0.84654        5.04380
C          0.67672       -1.26407        6.18014
O          1.17061       -0.57528        7.33208
O         -0.91455       -1.06385        3.67322
O          2.47446       -0.32452        2.39726
O         -0.90134       -0.92698        0.92232
O          2.47803       -0.10444       -0.23863
H          0.72829        0.96750       -0.08774
H          0.65407       -0.47042       -1.09336
H          0.88698       -1.92227        0.92615
H          0.70456        0.71427        2.45963
H          0.84625       -2.13507        3.58659
H          2.10856       -0.26681        4.90729
H          0.20583        0.98525        5.99753
H          1.10766       -2.26702        6.15028
H         -0.40889       -1.34384        6.30615
H          2.14332       -0.58085        7.28238
H         -1.14838       -0.17563        4.01432
H          2.77586       -1.22869        2.18834
H         -1.27429       -0.21531        1.47147
H          2.81387        0.28316        0.59528
26 26 26 26 26 26 26 26 26 26 26 26 26 26 26 26 26 26 26 26 26 26 26 26 26 26 26 26 26 26 26 26 26 26 26 26 26 26 26 26 26 26 26 26 26 26 26 26 26 26 26 26 26 26 26 26 26 26 26 26 26 26 26 26 26 26 26 26 26 26 26 26 26
C(C(C(C(C(O)CO)O)O)O)O
InChI=1S/C6H14O6/c7-1-3(9)5(11)6(12)4(10)2-8/h3-12H,1-2H2/t3-,4-,5+,6+/m0/s1
