18
metacyc CPD-599  -301.679353664 -301.679353664 -301.679353664 -301.679353664 -301.679353664 -301.679353664 -301.679353664 -301.679353664 -301.679353664 -301.679353664 -301.679353664 -301.679353664 -301.679353664 -301.679353664 -301.679353664
C          0.92876       -0.31070       -0.30602
O          0.26607        0.77331       -0.22544
O          0.48393       -1.47883       -0.43791
C          2.42542       -0.18173       -0.11964
C          2.77528        1.01117        0.74096
N          2.30976        0.84653        2.15132
C          1.17629        1.19526        2.68724
N          0.14455        1.64024        2.02386
N          1.07188        1.13319        3.93652
C          4.33423        1.10370        0.92430
O          5.01277        1.43979       -0.07855
O          4.70188        0.87096        2.12830
H          2.86555       -0.06615       -1.11722
H          2.83292       -1.10467        0.30955
H          2.40953        1.96985        0.34984
H          3.10602        0.59326        2.75403
H          0.13846        1.51977        0.99348
H         -0.71555        1.87316        2.47916
18 18 18 18 18 18 18 18 18 18 18 18 18 18 18 18 18 18 18 18 18 18 18 18 18 18 18 18 18 18 18 18 18 18 18 18 18 18 18 18 18 18 18 18 18 18 18 18 18
C(=O)([O-])CC(NC(N)=[N+])C(=O)[O-]
InChI=1S/C5H9N3O4/c6-5(7)8-2(4(11)12)1-3(9)10/h2H,1H2,(H,9,10)(H,11,12)(H4,6,7,8)/p-1/t2-/m0/s1
