19
metacyc CPD-20806  -613.89417832 -613.89417832 -613.89417832 -613.89417832 -613.89417832 -613.89417832 -613.89417832 -613.89417832 -613.89417832 -613.89417832 -613.89417832 -613.89417832 -613.89417832 -613.89417832 -613.89417832
C          0.99593        0.51978        0.41669
O          0.87132        1.89818        0.75261
C          2.40958        0.11510       -0.03139
O          2.45048       -1.31862       -0.17325
C          2.91737        0.78649       -1.33587
H          3.92786        0.40927       -1.54994
C          2.04831        0.59839       -2.55436
O          1.73739       -0.57598       -2.88736
C          1.78111        1.80156       -3.05996
O          1.00946        2.00195       -4.17046
C          2.40727        2.83634       -2.22663
O          2.34987        4.04429       -2.38065
O          3.02559        2.21561       -1.17771
H          0.23761        0.26131       -0.32922
H          0.73536       -0.05089        1.31586
H          0.99778        2.39432       -0.07616
H          3.10406        0.38414        0.77355
H          2.13586       -1.46057       -1.10546
H          0.79794        1.07186       -4.40659
19 19 19 19 19 19 19 19 19 19 19 19 19 19 19 19 19 19 19 19 19 19 19 19 19 19 19 19 19 19 19 19 19 19 19 19 19 19 19 19 19 19 19 19 19 19 19 19 19 19 19 19
C(O)C(O)[CH]1(C([O-])=C(O)C(=O)O1)
InChI=1S/C6H8O6/c7-1-2(8)5-3(9)4(10)6(11)12-5/h2,5,7-10H,1H2/p-1/t2-,5+/m1/s1
