19
metacyc CPD-18649  -196.638309856 -196.638309856 -196.638309856 -196.638309856 -196.638309856 -196.638309856 -196.638309856 -196.638309856 -196.638309856 -196.638309856 -196.638309856 -196.638309856 -196.638309856 -196.638309856 -196.638309856
C          2.98580       -1.13018        0.71737
O          2.29807       -0.00782        0.16400
C          3.11203        1.01747       -0.19028
C          2.36920        2.24191       -0.67342
C          0.83895        2.17930       -0.73163
C          0.13886        2.12803        0.63065
C          0.45697        3.30322        1.58423
O          0.71534        4.41444        1.03475
O          0.48794        3.00133        2.81369
N         -1.31617        2.15158        0.40487
O          4.33909        0.95997       -0.16094
H          2.24266       -1.87516        1.01095
H          3.54974       -0.83590        1.60856
H          3.64837       -1.57760       -0.02963
H          2.72550        2.42047       -1.69582
H          2.69636        3.08512       -0.05863
H          0.53472        1.31197       -1.33229
H          0.49742        3.06550       -1.28281
H          0.37403        1.18957        1.14263
19 19 19 19 19 19 19 19 19 19 19 19 19 19 19 19 19 19 19 19 19 19 19 19 19 19 19 19 19 19 19 19 19 19 19 19 19 19 19 19 19 19 19 19 19 19 19 19 19 19 19 19
COC(CCC(C(=O)[O-])[N+])=O
InChI=1S/C6H11NO4/c1-11-5(8)3-2-4(7)6(9)10/h4H,2-3,7H2,1H3,(H,9,10)/t4-/m0/s1
