20
metacyc CPD-524  -244.32141648 -244.32141648 -244.32141648 -244.32141648 -244.32141648 -244.32141648 -244.32141648 -244.32141648 -244.32141648 -244.32141648 -244.32141648 -244.32141648 -244.32141648 -244.32141648 -244.32141648
C          4.61267       -0.96716        0.63904
C          4.25202       -1.30403       -0.77756
O          3.17576       -0.53110       -1.19756
C          2.60961       -0.71715       -2.47931
C          2.39165       -2.02628       -2.93788
C          1.81826       -2.25451       -4.18468
C          1.42490       -1.17585       -4.96664
C          1.60083        0.12713       -4.49149
C          2.19231        0.39303       -3.23620
C          2.33493        1.83830       -2.78898
O          2.86351        2.07685       -1.65994
O          1.90602        2.73210       -3.59227
O          4.82621       -2.18903       -1.40539
H          4.01965       -0.13130        1.01714
H          5.67055       -0.69567        0.68367
H          4.42448       -1.84189        1.26895
H          2.67471       -2.87861       -2.32766
H          1.68217       -3.27088       -4.53940
H          0.97636       -1.33902       -5.94174
H          1.27090        0.96369       -5.10848
20 20 20 20 20 20 20 20 20 20 20 20 20 20 20 20 20 20 20 20 20 20 20 20 20 20 20 20 20 20 20 20 20 20 20 20 20 20 20 20 20 20 20 20 20 20 20 20 20 20 20 20 20 20 20
CC(OC1(C=CC=CC=1C([O-])=O))=O
InChI=1S/C9H8O4/c1-6(10)13-8-5-3-2-4-7(8)9(11)12/h2-5H,1H3,(H,11,12)/p-1
