14
metacyc CPD-10879  -378.46321792 -378.46321792 -378.46321792 -378.46321792 -378.46321792 -378.46321792 -378.46321792 -378.46321792 -378.46321792 -378.46321792 -378.46321792 -378.46321792 -378.46321792 -378.46321792 -378.46321792
C          0.91166        0.23004       -0.04451
O          0.17153       -0.65042        0.47036
O          0.57921        1.27565       -0.68155
C          2.42646        0.04890        0.08143
C          3.03784       -0.95992        0.72413
C          4.48120       -1.05600        0.79404
C          5.25408       -1.99258        1.36898
C          4.83680       -3.27660        2.15931
O          5.72081       -4.19135        2.17223
O          3.71942       -3.26931        2.74713
F          6.59545       -1.78756        1.22370
H          3.00789        0.82831       -0.40436
H          2.44127       -1.73051        1.21048
H          5.01719       -0.25052        0.29438
14 14 14 14 14 14 14 14 14 14 14 14 14 14 14 14 14 14 14 14 14 14 14 14 14 14 14 14 14 14 14 14 14 14 14 14 14
C([O-])(=O)C=CC=C(C([O-])=O)F
InChI=1S/C6H5FO4/c7-4(6(10)11)2-1-3-5(8)9/h1-3H,(H,8,9)(H,10,11)/p-2/b3-1-,4-2+
