19
metacyc CPD-19214  -660.07419968 -660.07419968 -660.07419968 -660.07419968 -660.07419968 -660.07419968 -660.07419968 -660.07419968 -660.07419968 -660.07419968 -660.07419968 -660.07419968 -660.07419968 -660.07419968 -660.07419968
C          2.13452       -1.88158       -0.35640
O          3.16870       -1.75909        0.35761
O          1.11878       -2.61213       -0.15128
C          2.12790       -1.13768       -1.67536
C          2.81362        0.19844       -1.55893
O          2.17046        1.21371       -1.26838
C          4.29469        0.26376       -1.87671
C          4.58790        0.45939       -3.35261
O          3.68057        0.47880       -4.19719
C          6.02250        0.42081       -3.81491
C          6.89562        1.53798       -3.29353
O          6.35467        2.43050       -2.59197
O          8.11007        1.44487       -3.64796
H          1.10061       -0.96889       -2.01693
H          2.62554       -1.74794       -2.43468
H          4.76860       -0.66915       -1.55381
H          4.72405        1.07805       -1.29146
H          6.02654        0.48897       -4.91172
H          6.44647       -0.54970       -3.54383
19 19 19 19 19 19 19 19 19 19 19 19 19 19 19 19 19 19 19 19 19 19 19 19 19 19 19 19 19 19 19 19 19 19 19 19 19 19 19 19 19 19 19 19 19 19 19 19 19 19 19 19
C([O-])(=O)CC(=O)CC(=O)CC([O-])=O
InChI=1S/C7H8O6/c8-4(2-6(10)11)1-5(9)3-7(12)13/h1-3H2,(H,10,11)(H,12,13)/p-2
