22
metacyc CPD-14804  -474.08406104 -474.08406104 -474.08406104 -474.08406104 -474.08406104 -474.08406104 -474.08406104 -474.08406104 -474.08406104 -474.08406104 -474.08406104 -474.08406104 -474.08406104 -474.08406104 -474.08406104
C          0.97122        0.07931        0.01420
O          0.23615       -0.29571       -1.14377
C          2.48703       -0.01403       -0.20915
O          2.82564       -1.36602       -0.58945
C          2.60585       -1.75006       -1.88391
C          3.09342       -0.78445       -2.95791
C          2.66806        0.64956       -2.63551
C          3.07781        0.99319       -1.19970
O          4.52418        0.90725       -1.13620
O          3.28481        1.57862       -3.53632
O          4.51870       -0.87142       -3.11570
O          2.13917       -2.85579       -2.12264
H          0.66787       -0.59063        0.82674
H          0.68387        1.09852        0.28751
H          0.09213       -1.26297       -1.10442
H          2.97044        0.14541        0.76246
H          2.65391       -1.08032       -3.91856
H          1.58825        0.76627       -2.76506
H          2.80523        2.02356       -0.94771
H          4.79190        0.87413       -0.19904
H          4.24609        1.41104       -3.47361
H          4.91404       -0.48754       -2.30750
22 22 22 22 22 22 22 22 22 22 22 22 22 22 22 22 22 22 22 22 22 22 22 22 22 22 22 22 22 22 22 22 22 22 22 22 22 22 22 22 22 22 22 22 22 22 22 22 22 22 22 22 22 22 22 22 22 22 22 22 22
C(O)C1(OC(C(C(C1O)O)O)=O)
InChI=1S/C6H10O6/c7-1-2-3(8)4(9)5(10)6(11)12-2/h2-5,7-10H,1H2/t2-,3-,4+,5-/m0/s1
