17
metacyc CPD-9169  -86.672957456 -86.672957456 -86.672957456 -86.672957456 -86.672957456 -86.672957456 -86.672957456 -86.672957456 -86.672957456 -86.672957456 -86.672957456 -86.672957456 -86.672957456 -86.672957456 -86.672957456
C          0.96157       -0.06059       -0.03519
C          0.29612       -0.20029       -1.38883
C          0.12802       -1.45353       -2.01833
C         -0.50506       -1.51608       -3.27217
C         -0.93911       -0.35699       -3.91884
C         -0.75376        0.88125       -3.31665
C         -0.14765        0.95669       -2.06172
N          0.49187       -2.65531       -1.34891
O          0.85390       -3.77362       -2.10117
O          0.86637        1.06279        0.55474
O          1.58285       -1.08103        0.41568
H         -0.66757       -2.47701       -3.74624
H         -1.41981       -0.42735       -4.88900
H         -1.08051        1.78926       -3.81233
H         -0.00654        1.92764       -1.58809
H          1.17138       -2.40591       -0.59283
H         -0.00181       -4.22231       -2.21153
17 17 17 17 17 17 17 17 17 17 17 17 17 17 17 17 17 17 17 17 17 17 17 17 17 17 17 17 17 17 17 17 17 17 17 17 17 17 17 17 17 17 17 17 17 17
C(C1(C(=CC=CC=1)NO))(=O)[O-]
InChI=1S/C7H7NO3/c9-7(10)5-3-1-2-4-6(5)8-11/h1-4,8,11H,(H,9,10)/p-1
