16
metacyc CPD-245  -739.16711312 -739.16711312 -739.16711312 -739.16711312 -739.16711312 -739.16711312 -739.16711312 -739.16711312 -739.16711312 -739.16711312 -739.16711312 -739.16711312 -739.16711312 -739.16711312 -739.16711312
C         -0.56425        0.97039       -0.37843
O          0.53551        0.50851       -0.79781
C         -1.32173        0.16768        0.67824
C         -0.93849       -1.00147        1.23592
C         -1.72383       -1.77338        2.22494
C         -0.83351       -2.59084        3.24892
O         -1.15687       -2.51085        4.47668
O          0.20269       -3.15121        2.76469
C         -3.07481       -1.79186        2.17571
C         -4.15058       -2.51238        2.99285
O         -3.98659       -3.74005        3.25083
O         -5.21829       -1.82903        3.14112
O         -1.14434        2.04056       -0.73587
H         -2.26432        0.61241        0.98493
H          0.01665       -1.43650        0.95059
H         -3.56104       -1.18524        1.41527
16 16 16 16 16 16 16 16 16 16 16 16 16 16 16 16 16 16 16 16 16 16 16 16 16 16 16 16 16 16 16 16 16 16 16 16 16 16 16 16 16 16 16
C(=O)(C=CC(C([O-])=O)=CC(=O)[O-])[O-]
InChI=1S/C7H6O6/c8-5(9)2-1-4(7(12)13)3-6(10)11/h1-3H,(H,8,9)(H,10,11)(H,12,13)/p-3/b2-1-,4-3+
