13
metacyc CPD-13407  -36.953761624 -36.953761624 -36.953761624 -36.953761624 -36.953761624 -36.953761624 -36.953761624 -36.953761624 -36.953761624 -36.953761624 -36.953761624 -36.953761624 -36.953761624 -36.953761624 -36.953761624
C          1.08875       -0.01837       -0.07029
C          2.60496        0.06222       -0.13224
O          3.17030       -1.20923        0.18936
C          3.11006        0.52914       -1.50588
O          2.39364        0.87234       -2.43841
N          4.47392        0.54702       -1.61500
H          0.76285       -0.35935        0.91806
H          0.70168       -0.73832       -0.79987
H          0.63091        0.95467       -0.27495
H          2.96071        0.78080        0.61456
H          2.78697       -1.85255       -0.43461
H          5.04030        0.06127       -0.92958
H          4.87442        0.76637       -2.51683
13 13 13 13 13 13 13 13 13 13 13 13 13 13 13 13 13 13 13 13 13 13 13 13 13 13 13 13 13 13 13 13 13 13
CC(O)C(=O)N
InChI=1S/C3H7NO2/c1-2(5)3(4)6/h2,5H,1H3,(H2,4,6)
