15
metacyc CPD-14555  -344.23069224 -344.23069224 -344.23069224 -344.23069224 -344.23069224 -344.23069224 -344.23069224 -344.23069224 -344.23069224 -344.23069224 -344.23069224 -344.23069224 -344.23069224 -344.23069224 -344.23069224
C          0.88349        0.24707       -0.05541
O          0.16569       -0.77389       -0.25626
O          0.50311        1.44176        0.14610
C          2.40100        0.05048       -0.01747
C          2.96687       -1.12705       -0.81176
N          2.63439       -0.96653       -2.24010
C          4.49843       -1.19713       -0.74950
C          5.13312       -1.53281        0.59557
O          4.50556       -2.33246        1.34228
O          6.28076       -1.02198        0.77550
H          2.66132       -0.07633        1.04071
H          2.87863        0.98225       -0.34639
H          2.52775       -2.06837       -0.46273
H          4.92747       -0.25379       -1.11259
H          4.85050       -1.98307       -1.43298
15 15 15 15 15 15 15 15 15 15 15 15 15 15 15 15 15 15 15 15 15 15 15 15 15 15 15 15 15 15 15 15 15 15 15 15 15 15 15 15
C([O-])(=O)CC([N+])CC(=O)[O-]
InChI=1S/C5H9NO4/c6-3(1-4(7)8)2-5(9)10/h3H,1-2,6H2,(H,7,8)(H,9,10)/p-1
