19
metacyc CPD-343  -587.99521832 -587.99521832 -587.99521832 -587.99521832 -587.99521832 -587.99521832 -587.99521832 -587.99521832 -587.99521832 -587.99521832 -587.99521832 -587.99521832 -587.99521832 -587.99521832 -587.99521832
C          0.03599       -0.59093        0.67870
C          0.48229       -1.02857       -0.71666
C          1.32420       -2.29963       -0.82956
C          1.04114       -3.05829       -2.12095
C         -0.38023       -3.48582       -2.41734
C         -1.40830       -3.75743       -1.30946
O         -2.45174       -4.41620       -1.60138
O         -1.11884       -3.28306       -0.15890
O         -0.73310       -3.71663       -3.57989
O          2.70724       -1.89690       -0.83179
O          0.31466       -0.28971       -1.69547
O         -0.21941       -1.60897        1.62468
H         -0.87483        0.00699        0.57394
H          0.82281        0.05123        1.08227
H          1.19515       -2.94667        0.03993
H          1.66878       -3.95751       -2.15245
H          1.36483       -2.44188       -2.97185
H          2.81703       -1.31130       -1.60304
H         -0.74655       -2.30092        1.13837
19 19 19 19 19 19 19 19 19 19 19 19 19 19 19 19 19 19 19 19 19 19 19 19 19 19 19 19 19 19 19 19 19 19 19 19 19 19 19 19 19 19 19 19 19 19 19 19 19 19 19 19
C(C(C(CC(C([O-])=O)=O)O)=O)O
InChI=1S/C6H8O6/c7-2-5(10)3(8)1-4(9)6(11)12/h3,7-8H,1-2H2,(H,11,12)/p-1/t3-/m0/s1
