23
metacyc CPD-15615  -246.00480704 -246.00480704 -246.00480704 -246.00480704 -246.00480704 -246.00480704 -246.00480704 -246.00480704 -246.00480704 -246.00480704 -246.00480704 -246.00480704 -246.00480704 -246.00480704 -246.00480704
C          1.05519       -0.01815        0.07499
C          2.56619       -0.09437       -0.12223
O          2.98648       -1.41701       -0.48319
C          2.61286       -1.83199       -1.79677
O          3.16374       -3.12429       -2.01731
C          3.12643       -0.86944       -2.88702
O          4.56977       -0.97527       -2.96452
C          2.70108        0.56733       -2.55703
O          3.29257        1.48574       -3.48110
C          3.12270        0.93133       -1.12364
O          4.56966        0.90282       -1.08071
H          0.73079       -0.78662        0.78498
H          0.49872       -0.19326       -0.84891
H          0.76274        0.96196        0.46545
H          3.03023        0.09548        0.85294
H          1.52533       -1.93027       -1.84681
H          4.06361       -2.95299       -2.35175
H          2.76053       -1.17218       -3.87382
H          4.91966       -0.49716       -2.17991
H          1.61600        0.66305       -2.66429
H          4.25899        1.38184       -3.37117
H          2.81676        1.95328       -0.87545
H          4.83606        0.83659       -0.14333
23 23 23 23 23 23 23 23 23 23 23 23 23 23 23 23 23 23 23 23 23 23 23 23 23 23 23 23 23 23 23 23 23 23 23 23 23 23 23 23 23 23 23 23 23 23 23 23 23 23 23 23 23 23 23 23 23 23 23 23 23 23 23 23
CC1(OC(O)C(O)C(O)C(O)1)
InChI=1S/C6H12O5/c1-2-3(7)4(8)5(9)6(10)11-2/h2-10H,1H3/t2-,3+,4+,5+,6+/m1/s1
