16
metacyc CPD-8877  -225.674817984 -225.674817984 -225.674817984 -225.674817984 -225.674817984 -225.674817984 -225.674817984 -225.674817984 -225.674817984 -225.674817984 -225.674817984 -225.674817984 -225.674817984 -225.674817984 -225.674817984
C          1.03504        0.04304        0.01639
C          0.29975        1.33752        0.02803
C         -1.10346        1.27914       -0.04264
C         -1.83447        2.46420       -0.04382
C         -1.18330        3.69293        0.02929
C          0.21382        3.72154        0.10218
C          1.01846        2.56200        0.10436
O          2.28936        2.65354        0.16974
N         -3.29602        2.42121       -0.12646
O         -3.84639        1.31173       -0.20051
O         -3.91187        3.49943       -0.11983
O          0.45540       -1.04109       -0.04102
H          2.13536        0.09002        0.05943
H         -1.59461        0.31120       -0.09743
H         -1.72596        4.63332        0.03076
H          0.71179        4.69109        0.15882
16 16 16 16 16 16 16 16 16 16 16 16 16 16 16 16 16 16 16 16 16 16 16 16 16 16 16 16 16 16 16 16 16 16 16 16 16 16 16 16 16 16 16
C(C1(C=C(C=CC=1[O-])[N+](=O)[O-]))=O
InChI=1S/C7H5NO4/c9-4-5-3-6(8(11)12)1-2-7(5)10/h1-4,10H/p-1
