18
metacyc CPD-468  -251.50381732 -251.50381732 -251.50381732 -251.50381732 -251.50381732 -251.50381732 -251.50381732 -251.50381732 -251.50381732 -251.50381732 -251.50381732 -251.50381732 -251.50381732 -251.50381732 -251.50381732
C          2.70233       -1.43577       -0.22512
O          2.80616       -2.08385        0.85526
O          2.72904       -1.87209       -1.41326
C          2.43306        0.06791       -0.09544
C          2.99096        0.77739        1.13666
C          4.52456        0.83262        1.22327
C          5.21252        1.56898        0.06859
C          4.92119        3.08876       -0.05446
O          4.66077        3.71375        1.01692
O          4.98178        3.56618       -1.22992
N          6.67330        1.46122        0.26218
H          1.33994        0.17028       -0.07479
H          2.76525        0.58047       -1.00527
H          2.61588        0.28145        2.04065
H          2.59160        1.79827        1.16478
H          4.90802       -0.19434        1.28396
H          4.78746        1.30907        2.17640
H          4.97303        1.07957       -0.88085
18 18 18 18 18 18 18 18 18 18 18 18 18 18 18 18 18 18 18 18 18 18 18 18 18 18 18 18 18 18 18 18 18 18 18 18 18 18 18 18 18 18 18 18 18 18 18 18 18
C([O-])(=O)CCCC(C(=O)[O-])[N+]
InChI=1S/C6H11NO4/c7-4(6(10)11)2-1-3-5(8)9/h4H,1-3,7H2,(H,8,9)(H,10,11)/p-1/t4-/m0/s1
