30
metacyc CPD-12557  -245.028453904 -245.028453904 -245.028453904 -245.028453904 -245.028453904 -245.028453904 -245.028453904 -245.028453904 -245.028453904 -245.028453904 -245.028453904 -245.028453904 -245.028453904 -245.028453904 -245.028453904
C          4.27165        1.14905        0.31197
C          3.41453        0.21749        1.12027
N          3.12833       -0.98612        0.51409
C          2.28711       -2.02861        1.14935
C          0.80954       -1.60703        1.27581
C          0.21833       -1.39349       -0.11897
C          0.32843       -2.67468       -0.95654
O          1.64452       -3.25370       -0.92756
C          2.31823       -3.34492        0.32641
O          1.92349       -4.48480        1.06703
C         -0.79843       -3.68042       -0.64086
O         -0.68758       -4.86965       -1.41704
O         -1.13459       -0.95105        0.00307
O          0.55769       -0.43023        2.05220
O          2.99036        0.50430        2.23417
H          4.21346        0.92111       -0.75544
H          5.30749        1.07163        0.64759
H          3.91550        2.17411        0.45607
H          3.64836       -1.23413       -0.31975
H          2.69936       -2.19375        2.15244
H          0.25313       -2.39619        1.79325
H          0.76298       -0.58482       -0.62165
H          0.17864       -2.39606       -2.00782
H          3.36564       -3.54301        0.07013
H          0.98861       -4.41310        1.30363
H         -1.77822       -3.23943       -0.85595
H         -0.80020       -3.97912        0.40919
H         -0.64810       -4.60704       -2.35284
H         -1.12433       -0.32823        0.76243
H          1.41370       -0.09312        2.40029
30 30 30 30 30 30 30 30 30 30 30 30 30 30 30 30 30 30 30 30 30 30 30 30 30 30 30 30 30 30 30 30 30 30 30 30 30 30 30 30 30 30 30 30 30 30 30 30 30 30 30 30 30 30 30 30 30 30 30 30 30 30 30 30 30 30 30 30 30 30 30 30 30 30 30 30 30 30 30 30 30 30 30 30 30
CC(NC1(C(C(C(OC1O)CO)O)O))=O
InChI=1S/C8H15NO6/c1-3(11)9-5-7(13)6(12)4(2-10)15-8(5)14/h4-8,10,12-14H,2H2,1H3,(H,9,11)/t4-,5-,6+,7-,8-/m1/s1
