17
metacyc CPD-15320  -242.127690888 -242.127690888 -242.127690888 -242.127690888 -242.127690888 -242.127690888 -242.127690888 -242.127690888 -242.127690888 -242.127690888 -242.127690888 -242.127690888 -242.127690888 -242.127690888 -242.127690888
C          0.99625       -0.06553       -0.02831
O          0.49578        0.28526       -1.33172
N         -0.91162        0.41110       -1.27540
C         -1.61478        0.25797       -2.42784
N         -0.85306        0.19841       -3.54881
O         -2.83704        0.19261       -2.47316
C          2.51663       -0.08313       -0.06005
N          3.05364        1.28044       -0.16033
C          3.04277       -0.69164        1.24994
O          2.30866       -0.55461        2.27262
O          4.13977       -1.31752        1.14699
H          0.60839       -1.06122        0.22322
H          0.61545        0.65158        0.71094
H         -1.38167        0.36672       -0.38012
H          0.12619       -0.00775       -3.39509
H         -1.29906       -0.07722       -4.40840
H          2.87146       -0.66282       -0.91937
17 17 17 17 17 17 17 17 17 17 17 17 17 17 17 17 17 17 17 17 17 17 17 17 17 17 17 17 17 17 17 17 17 17 17 17 17 17 17 17 17 17 17 17 17 17
C(ONC(N)=O)C([N+])C(=O)[O-]
InChI=1S/C4H9N3O4/c5-2(3(8)9)1-11-7-4(6)10/h2H,1,5H2,(H,8,9)(H3,6,7,10)/t2-/m1/s1
