22
metacyc CPD-16808  -269.57871824 -269.57871824 -269.57871824 -269.57871824 -269.57871824 -269.57871824 -269.57871824 -269.57871824 -269.57871824 -269.57871824 -269.57871824 -269.57871824 -269.57871824 -269.57871824 -269.57871824
C          0.93954       -0.27331        0.17079
O          0.45408       -1.20450       -0.55060
O          0.40512        0.72438        0.71956
C          2.54516       -0.39215        0.29290
N          3.15070       -1.52415       -0.28620
C          3.23811        0.61834        0.85167
C          4.73530        0.69876        0.93410
O          5.20510        1.41006       -0.21885
C          5.25935        1.41822        2.20142
O          4.84312        0.80135        3.42884
C          6.80012        1.45915        2.19133
O          7.32169        2.21247        3.29318
H          2.37059       -1.99715       -0.77495
H          3.83944       -1.23119       -0.97438
H          2.67889        1.47058        1.24033
H          5.16508       -0.30889        0.90367
H          4.41535        1.70783       -0.70627
H          4.88847        2.44953        2.22815
H          4.67629       -0.14176        3.24259
H          7.18337        1.92161        1.27835
H          7.20992        0.44637        2.27068
H          6.55380        2.57008        3.77451
22 22 22 22 22 22 22 22 22 22 22 22 22 22 22 22 22 22 22 22 22 22 22 22 22 22 22 22 22 22 22 22 22 22 22 22 22 22 22 22 22 22 22 22 22 22 22 22 22 22 22 22 22 22 22 22 22 22 22 22 22
C([O-])(=O)C(N)=CC(O)C(O)CO
InChI=1S/C6H11NO5/c7-3(6(11)12)1-4(9)5(10)2-8/h1,4-5,8-10H,2,7H2,(H,11,12)/p-1/b3-1-/t4-,5+/m0/s1
