23
metacyc CPD-18318  -230.319526592 -230.319526592 -230.319526592 -230.319526592 -230.319526592 -230.319526592 -230.319526592 -230.319526592 -230.319526592 -230.319526592 -230.319526592 -230.319526592 -230.319526592 -230.319526592 -230.319526592
C          1.05507       -0.21548       -0.22127
N          0.47172       -1.18956        0.70124
C         -0.87164       -1.45067        0.75489
O         -1.72445       -0.97818        0.01857
C         -1.25435       -2.43685        1.78680
O         -0.84431       -2.13033        3.13260
C         -2.25507       -2.05296        2.84054
C         -3.09201       -3.09751        3.46016
O         -4.08564       -3.54515        2.90513
N         -2.68810       -3.52151        4.69167
C          1.19355        1.16689        0.40431
N          2.11968        1.12051        1.54685
C          1.77886        2.15748       -0.62061
O          2.55188        1.67385       -1.49924
O          1.39574        3.35803       -0.48446
H          0.42949       -0.16645       -1.12063
H          2.02693       -0.62764       -0.51865
H          1.05507       -1.49060        1.47167
H         -1.23312       -3.47044        1.46501
H         -2.70934       -1.07220        2.76915
H         -1.81967       -3.19279        5.09173
H         -3.20279       -4.26527        5.13886
H          0.21902        1.52500        0.75392
23 23 23 23 23 23 23 23 23 23 23 23 23 23 23 23 23 23 23 23 23 23 23 23 23 23 23 23 23 23 23 23 23 23 23 23 23 23 23 23 23 23 23 23 23 23 23 23 23 23 23 23 23 23 23 23 23 23 23 23 23 23 23 23
C(NC(=O)C1(OC(C(=O)N)1))C([N+])C(=O)[O-]
InChI=1S/C7H11N3O5/c8-2(7(13)14)1-10-6(12)4-3(15-4)5(9)11/h2-4H,1,8H2,(H2,9,11)(H,10,12)(H,13,14)/t2-,3-,4-/m0/s1
