24
metacyc CPD-10729  -401.31488704 -401.31488704 -401.31488704 -401.31488704 -401.31488704 -401.31488704 -401.31488704 -401.31488704 -401.31488704 -401.31488704 -401.31488704 -401.31488704 -401.31488704 -401.31488704 -401.31488704
C          0.97071        0.01630        0.19576
O          0.53808       -0.09785        1.54795
C          2.49060       -0.08099        0.09597
O          3.10345        0.96806        0.87446
C          4.42651        0.52103        1.16995
O          4.82705        1.11146        2.40637
C          5.42919        0.97651        0.08858
O          6.76082        0.57740        0.44116
C          4.34888       -1.01453        1.33497
O          5.43905       -1.78081        0.80408
C          3.05550       -1.40015        0.61793
O          3.29922       -2.29575       -0.46844
H          0.62426        0.98909       -0.17627
H          0.48980       -0.77117       -0.39171
H          1.00559        0.60075        2.04281
H          2.77607        0.07144       -0.95291
H          4.67922        2.06579        2.28976
H          5.42323        2.06753       -0.01029
H          5.18711        0.55622       -0.89166
H          6.93775        0.96619        1.32112
H          4.26891       -1.26769        2.39885
H          6.24213       -1.21777        0.83396
H          2.37679       -1.89592        1.32038
H          4.19823       -2.65554       -0.30247
24 24 24 24 24 24 24 24 24 24 24 24 24 24 24 24 24 24 24 24 24 24 24 24 24 24 24 24 24 24 24 24 24 24 24 24 24 24 24 24 24 24 24 24 24 24 24 24 24 24 24 24 24 24 24 24 24 24 24 24 24 24 24 24 24 24 24
C(O)C1(OC(O)(CO)C(O)C(O)1)
InChI=1S/C6H12O6/c7-1-3-4(9)5(10)6(11,2-8)12-3/h3-5,7-11H,1-2H2/t3-,4-,5+,6+/m0/s1
