16
metacyc CPD-15178  -67.445690888 -67.445690888 -67.445690888 -67.445690888 -67.445690888 -67.445690888 -67.445690888 -67.445690888 -67.445690888 -67.445690888 -67.445690888 -67.445690888 -67.445690888 -67.445690888 -67.445690888
C          0.31080       -1.21576        0.22967
N          1.20444       -0.05931        0.30154
C          0.35759        1.17790        0.23537
C          0.48807        2.20035        1.41940
O          0.08961        1.83552        2.56831
O          0.89782        3.36131        1.08037
C         -1.10279        0.72068        0.17304
C         -1.03719       -0.72216       -0.28687
O         -2.10577       -1.47955        0.28614
H          0.20306       -1.67884        1.21901
H          0.69695       -2.00313       -0.42666
H          0.59190        1.71474       -0.69450
H         -1.67268        1.32768       -0.54079
H         -1.63219        0.81152        1.12856
H         -1.09371       -0.79331       -1.37912
H         -1.95213       -1.35546        1.24194
16 16 16 16 16 16 16 16 16 16 16 16 16 16 16 16 16 16 16 16 16 16 16 16 16 16 16 16 16 16 16 16 16 16 16 16 16 16 16 16 16 16 16
C1([N+]C(C(=O)[O-])CC(O)1)
InChI=1S/C5H9NO3/c7-3-1-4(5(8)9)6-2-3/h3-4,6-7H,1-2H2,(H,8,9)/t3-,4-/m0/s1
