11
metacyc CPD-358  -37.000291888 -37.000291888 -37.000291888 -37.000291888 -37.000291888 -37.000291888 -37.000291888 -37.000291888 -37.000291888 -37.000291888 -37.000291888 -37.000291888 -37.000291888 -37.000291888 -37.000291888
C          0.95967       -0.03473        0.08649
C          2.47742       -0.09528        0.04762
C          3.00240       -1.51005       -0.15163
H          4.10236       -1.59852       -0.15371
O          2.29601       -2.50449       -0.28848
O          2.96624        0.73934       -0.99592
H          0.55803       -0.64170        0.90389
H          0.52639       -0.39772       -0.85243
H          0.62014        0.99848        0.21422
H          2.88748        0.27436        0.99294
H          2.48646        0.50387       -1.81089
11 11 11 11 11 11 11 11 11 11 11 11 11 11 11 11 11 11 11 11 11 11 11 11 11 11 11 11
CC([CH]=O)O
InChI=1S/C3H6O2/c1-3(5)2-4/h2-3,5H,1H3/t3-/m1/s1
