18
metacyc CPD-11855  -703.62963968 -703.62963968 -703.62963968 -703.62963968 -703.62963968 -703.62963968 -703.62963968 -703.62963968 -703.62963968 -703.62963968 -703.62963968 -703.62963968 -703.62963968 -703.62963968 -703.62963968
C          0.94062       -0.11932       -0.27297
C          2.47221       -0.07040       -0.25629
O          2.91065        1.09205       -0.99622
C          3.05806       -0.05852        1.16562
C          2.50616        0.88088        2.22765
C          2.21498        2.37148        1.96619
O          1.99351        3.12469        2.97091
O          2.21248        2.75227        0.75002
O          2.37885        0.50359        3.40052
C          3.01760       -1.37626       -0.99541
O          2.27288       -1.87076       -1.89809
O          4.13780       -1.82673       -0.59692
H          0.50254        0.67775        0.33303
H          0.56428       -1.07624        0.09863
H          0.55687        0.03295       -1.28975
H          2.61176        1.88056       -0.47475
H          4.13737        0.13829        1.12676
H          2.92666       -1.06369        1.59271
18 18 18 18 18 18 18 18 18 18 18 18 18 18 18 18 18 18 18 18 18 18 18 18 18 18 18 18 18 18 18 18 18 18 18 18 18 18 18 18 18 18 18 18 18 18 18 18 18
CC(O)(CC(C(=O)[O-])=O)C([O-])=O
InChI=1S/C6H8O6/c1-6(12,5(10)11)2-3(7)4(8)9/h12H,2H2,1H3,(H,8,9)(H,10,11)/p-2/t6-/m1/s1
