17
metacyc CPD-14642  -129.837775032 -129.837775032 -129.837775032 -129.837775032 -129.837775032 -129.837775032 -129.837775032 -129.837775032 -129.837775032 -129.837775032 -129.837775032 -129.837775032 -129.837775032 -129.837775032 -129.837775032
C          0.94368       -0.09509       -0.10815
C          2.46747       -0.02571        0.01456
C          2.97936        1.34980       -0.42253
O          2.76059       -0.14622        1.42487
C          3.16825       -1.17676       -0.70745
C          2.92001       -1.16203       -2.21249
O          1.91746       -1.82406       -2.60491
O          3.76134       -0.50045       -2.88381
H          0.46989        0.64166        0.55006
H          0.57237       -1.07502        0.21010
H          0.60340        0.09331       -1.13129
H          2.55886        2.13724        0.21320
H          2.72555        1.57683       -1.46185
H          4.06838        1.41351       -0.30775
H          3.69615        0.09428        1.53219
H          2.84469       -2.14117       -0.29419
H          4.25060       -1.13813       -0.52326
17 17 17 17 17 17 17 17 17 17 17 17 17 17 17 17 17 17 17 17 17 17 17 17 17 17 17 17 17 17 17 17 17 17 17 17 17 17 17 17 17 17 17 17 17 17
CC(C)(O)CC(=O)[O-]
InChI=1S/C5H10O3/c1-5(2,8)3-4(6)7/h8H,3H2,1-2H3,(H,6,7)/p-1
