16
metacyc CPD-1774  -263.061021112 -263.061021112 -263.061021112 -263.061021112 -263.061021112 -263.061021112 -263.061021112 -263.061021112 -263.061021112 -263.061021112 -263.061021112 -263.061021112 -263.061021112 -263.061021112 -263.061021112
C          0.99801       -0.05331       -0.24989
C          2.33629        0.03445       -0.12348
C          3.08291        1.07287        0.71800
C          2.25245        2.11410        1.49369
N          1.47590        1.49297        2.58197
C          3.09107        3.23105        2.17099
O          4.23795        2.92210        2.60895
O          2.52529        4.37142        2.22172
C          3.21231       -1.00746       -0.88890
O          2.63706       -2.09792       -1.19103
O          4.39096       -0.64308       -1.15873
H          0.31923        0.62299        0.25073
H          0.55589       -0.83700       -0.85871
H          3.75390        1.62286        0.04562
H          3.73193        0.53147        1.42054
H          1.55636        2.60543        0.80237
16 16 16 16 16 16 16 16 16 16 16 16 16 16 16 16 16 16 16 16 16 16 16 16 16 16 16 16 16 16 16 16 16 16 16 16 16 16 16 16 16 16 16
C=C(CC([N+])C([O-])=O)C(=O)[O-]
InChI=1S/C6H9NO4/c1-3(5(8)9)2-4(7)6(10)11/h4H,1-2,7H2,(H,8,9)(H,10,11)/p-1/t4-/m0/s1
