18
metacyc CPD-21062  -9.8047864368 -9.8047864368 -9.8047864368 -9.8047864368 -9.8047864368 -9.8047864368 -9.8047864368 -9.8047864368 -9.8047864368 -9.8047864368 -9.8047864368 -9.8047864368 -9.8047864368 -9.8047864368 -9.8047864368
C          1.05766       -0.05222        0.09380
N          2.50916       -0.05538        0.09587
C          3.17503       -1.27041        0.09712
O          2.62102       -2.36670        0.09626
N          4.53498       -1.21332        0.09946
C          5.25222       -0.02988        0.10042
N          6.59419       -0.07669        0.10273
N          7.28707        1.09813        0.10349
C          6.60654        2.26449        0.10190
N          5.27328        2.37747        0.09964
C          4.61958        1.19030        0.09899
C          3.14007        1.19409        0.09663
O          2.52179        2.25658        0.09548
H          0.63674       -1.06062        0.09253
H          0.70568        0.48326       -0.79402
H          0.70329        0.48201        0.98142
H          5.04483       -2.08641        0.10048
H          7.19163        3.17625        0.10247
18 18 18 18 18 18 18 18 18 18 18 18 18 18 18 18 18 18 18 18 18 18 18 18 18 18 18 18 18 18 18 18 18 18 18 18 18 18 18 18 18 18 18 18 18 18 18 18 18
CN1(C(=O)NC2(=NN=CN=C(C(=O)1)2))
InChI=1S/C6H5N5O2/c1-11-5(12)3-4(9-6(11)13)10-8-2-7-3/h2H,1H3,(H,9,10,13)
