7
metacyc CPD-12279  -312.92056504 -312.92056504 -312.92056504 -312.92056504 -312.92056504 -312.92056504 -312.92056504 -312.92056504 -312.92056504 -312.92056504 -312.92056504 -312.92056504 -312.92056504 -312.92056504 -312.92056504
C          0.93592       -0.06302        0.01825
O          0.42914       -0.43351       -1.08592
O          0.36291        0.29580        1.08745
C          2.45444       -0.05267        0.04934
N          3.11375       -0.41108       -1.01817
H          2.96404        0.25736        0.97293
H          2.35629       -0.64055       -1.70186
7 7 7 7 7 7 7 7 7 7 7 7 7 7 7 7
C(=O)([O-])C=N
InChI=1S/C2H3NO2/c3-1-2(4)5/h1,3H,(H,4,5)/p-1
