27
metacyc CPD0-1265  -51.515763592 -51.515763592 -51.515763592 -51.515763592 -51.515763592 -51.515763592 -51.515763592 -51.515763592 -51.515763592 -51.515763592 -51.515763592 -51.515763592 -51.515763592 -51.515763592 -51.515763592
C          4.98959       -2.87440       -2.69235
O          5.64757       -1.95118       -3.24261
O          4.58905       -3.97069       -3.18708
C          4.59878       -2.67292       -1.22512
C          5.01555       -1.35568       -0.57710
C          4.55479       -1.23908        0.88236
C          5.13228       -2.29804        1.82968
C          6.66117       -2.29307        1.94886
C          7.26373       -0.98569        2.48015
C          6.80096       -0.65378        3.89631
C          7.36400        0.62268        4.52732
O          8.14388        1.31745        3.81987
O          6.97047        0.82915        5.71333
H          5.03541       -3.51314       -0.67344
H          3.50785       -2.77234       -1.15944
H          4.57928       -0.52191       -1.14169
H          6.10198       -1.22698       -0.64108
H          3.46030       -1.30589        0.91537
H          4.80296       -0.23788        1.25377
H          4.80911       -3.29459        1.51009
H          4.68534       -2.16201        2.82179
H          7.10744       -2.51779        0.97391
H          6.95859       -3.11459        2.61180
H          7.03233       -0.15861        1.80103
H          8.35615       -1.08500        2.47360
H          7.06045       -1.48847        4.55926
H          5.71078       -0.54913        3.91552
27 27 27 27 27 27 27 27 27 27 27 27 27 27 27 27 27 27 27 27 27 27 27 27 27 27 27 27 27 27 27 27 27 27 27 27 27 27 27 27 27 27 27 27 27 27 27 27 27 27 27 27 27 27 27 27 27 27 27 27 27 27 27 27 27 27 27 27 27 27 27 27 27 27 27 27
C([O-])(=O)CCCCCCCC(=O)[O-]
InChI=1S/C9H16O4/c10-8(11)6-4-2-1-3-5-7-9(12)13/h1-7H2,(H,10,11)(H,12,13)/p-2
