12
metacyc CPD0-1636  -160.492784064 -160.492784064 -160.492784064 -160.492784064 -160.492784064 -160.492784064 -160.492784064 -160.492784064 -160.492784064 -160.492784064 -160.492784064 -160.492784064 -160.492784064 -160.492784064 -160.492784064
C          1.05598       -0.06808        0.04329
O          0.54570       -1.16012        0.42461
O          0.48998        1.01674       -0.26857
C          2.58954       -0.01790        0.10058
N          3.08425       -0.88474        1.25616
C          2.94942       -0.44063       -1.32346
F          1.94557       -0.56520       -2.21488
F          3.82623        0.45838       -1.86217
F          3.61310       -1.63274       -1.32992
H          2.92227        1.00680        0.29525
H          2.67299       -1.80685        1.04332
H          2.50521       -0.60054        2.05320
12 12 12 12 12 12 12 12 12 12 12 12 12 12 12 12 12 12 12 12 12 12 12 12 12 12 12 12 12 12 12
C(=O)([O-])C(N)C(F)(F)F
InChI=1S/C3H4F3NO2/c4-3(5,6)1(7)2(8)9/h1H,7H2,(H,8,9)/p-1
