25
metacyc CPD0-1114  -190.013539984 -190.013539984 -190.013539984 -190.013539984 -190.013539984 -190.013539984 -190.013539984 -190.013539984 -190.013539984 -190.013539984 -190.013539984 -190.013539984 -190.013539984 -190.013539984 -190.013539984
C          2.82272        1.48156        0.21126
C          2.41741        0.02403        0.01382
C          2.94923       -0.93842        1.10632
C          4.49630       -1.01093        1.14879
C          5.07019       -2.00367        2.18701
C          6.60858       -2.03292        2.14262
O          7.10479       -2.93432        3.13269
O          4.68907       -1.67705        3.52992
O          4.99827       -1.32845       -0.15300
O          2.36124       -0.55734        2.35701
O          0.98429       -0.02038        0.02640
H          3.90625        1.61570        0.15723
H          2.46596        1.87074        1.17085
H          2.36427        2.10760       -0.56225
H          2.74096       -0.30951       -0.97753
H          2.55462       -1.93734        0.88165
H          4.87656       -0.01771        1.41469
H          4.69881       -3.01604        1.98752
H          7.02207       -1.04423        2.37176
H          6.98552       -2.35551        1.16899
H          6.51320       -2.84524        3.90522
H          4.99687       -0.77636        3.72757
H          4.66670       -2.21204       -0.40435
H          2.81760        0.23273        2.69074
H          0.72358       -0.04001        0.96913
25 25 25 25 25 25 25 25 25 25 25 25 25 25 25 25 25 25 25 25 25 25 25 25 25 25 25 25 25 25 25 25 25 25 25 25 25 25 25 25 25 25 25 25 25 25 25 25 25 25 25 25 25 25 25 25 25 25 25 25 25 25 25 25 25 25 25 25 25 25
CC(C(C(C(CO)O)O)O)O
InChI=1S/C6H14O5/c1-3(8)5(10)6(11)4(9)2-7/h3-11H,2H2,1H3/t3-,4-,5-,6-/m0/s1
