20
metacyc CPD0-1198  -586.22852432 -586.22852432 -586.22852432 -586.22852432 -586.22852432 -586.22852432 -586.22852432 -586.22852432 -586.22852432 -586.22852432 -586.22852432 -586.22852432 -586.22852432 -586.22852432 -586.22852432
C          1.02600        0.02277       -0.12484
O          0.45576       -0.00756        1.00625
O          0.54694        0.06912       -1.29412
C          2.57686       -0.02530       -0.03596
O          2.96097       -0.31891        1.33396
C          3.08477       -1.11042       -0.99772
O          2.76657       -0.78551       -2.36460
C          4.61944       -1.30393       -0.87804
O          5.01343       -1.69793        0.44176
C          5.14337       -2.35859       -1.86907
O          4.93170       -2.00663       -3.23366
H          2.96992        0.96302       -0.29749
H          2.08568       -0.26232        1.80177
H          2.59743       -2.06322       -0.75344
H          1.82062       -0.47638       -2.33311
H          5.10958       -0.35010       -1.10945
H          4.43005       -1.19188        1.05447
H          4.67306       -3.32971       -1.68070
H          6.22000       -2.50209       -1.72601
H          4.04441       -1.57787       -3.25909
20 20 20 20 20 20 20 20 20 20 20 20 20 20 20 20 20 20 20 20 20 20 20 20 20 20 20 20 20 20 20 20 20 20 20 20 20 20 20 20 20 20 20 20 20 20 20 20 20 20 20 20 20 20 20
C([O-])(=O)C(O)C(O)C(O)CO
InChI=1S/C5H10O6/c6-1-2(7)3(8)4(9)5(10)11/h2-4,6-9H,1H2,(H,10,11)/p-1/t2-,3+,4+/m0/s1
