21
metacyc CPD0-1533  -111.693704224 -111.693704224 -111.693704224 -111.693704224 -111.693704224 -111.693704224 -111.693704224 -111.693704224 -111.693704224 -111.693704224 -111.693704224 -111.693704224 -111.693704224 -111.693704224 -111.693704224
C          1.00531       -0.00294       -0.14204
C          0.41938        0.02925       -1.56535
C         -1.11627        0.03604       -1.57928
N         -1.64073        1.24608       -0.92864
C         -1.74701        0.00157       -2.99662
O         -1.06437        0.49365       -3.94234
O         -2.88869       -0.55626       -3.06790
C          2.53763       -0.10523       -0.14644
F          3.03487        0.95400       -0.86955
C          3.19704       -0.07281        1.23325
N          2.83957        1.14330        1.98104
C          2.88748       -1.32141        2.08496
O          2.62514       -2.37515        1.43008
O          3.01047       -1.21199        3.34143
H          0.57915       -0.85156        0.40522
H          0.70347        0.91163        0.37977
H          0.77324       -0.84838       -2.12171
H          0.80794        0.90824       -2.09598
H         -1.47958       -0.83822       -1.02500
H          2.84265       -1.00569       -0.69175
H          4.28448       -0.05236        1.09220
21 21 21 21 21 21 21 21 21 21 21 21 21 21 21 21 21 21 21 21 21 21 21 21 21 21 21 21 21 21 21 21 21 21 21 21 21 21 21 21 21 21 21 21 21 21 21 21 21 21 21 21 21 21 21 21 21 21
C(CC([N+])C(=O)[O-])C(F)C([N+])C(=O)[O-]
InChI=1S/C7H13FN2O4/c8-3(5(10)7(13)14)1-2-4(9)6(11)12/h3-5H,1-2,9-10H2,(H,11,12)(H,13,14)/t3-,4-,5-/m0/s1
