30
metacyc CPD0-1320  -166.51349312 -166.51349312 -166.51349312 -166.51349312 -166.51349312 -166.51349312 -166.51349312 -166.51349312 -166.51349312 -166.51349312 -166.51349312 -166.51349312 -166.51349312 -166.51349312 -166.51349312
C          1.00127       -0.04345        0.12631
N          0.54199        1.16552       -0.58474
N          0.53601        2.21678        0.08357
N          0.51994        3.17602        0.69696
C          2.52255       -0.17856        0.02409
O          3.15914        0.93533        0.68878
C          4.46641        0.47805        1.08671
C          4.20303       -0.95731        1.57389
O          5.31572       -1.81703        1.72968
C          3.05237       -1.45658        0.69405
O          3.42385       -2.43584       -0.27048
N          5.40127        0.79217       -0.01032
C          5.57114        2.14106       -0.30769
C          6.32638        2.56404       -1.32301
C          7.03522        1.56667       -2.13342
O          7.64504        1.88459       -3.14649
N          6.93747        0.27982       -1.69712
C          6.02578       -0.17300       -0.78230
O          5.78278       -1.37736       -0.72917
H          0.52324       -0.91152       -0.34126
H          0.67984       -0.00957        1.17412
H          2.81705       -0.14252       -1.03286
H          4.79405        1.07963        1.94453
H          3.77825       -0.84900        2.58155
H          5.55785       -2.13925        0.83644
H          2.28911       -1.92449        1.32585
H          4.23462       -2.13419       -0.73039
H          5.01813        2.85265        0.30121
H          6.42833        3.60475       -1.59716
H          7.37545       -0.41775       -2.27880
30 30 30 30 30 30 30 30 30 30 30 30 30 30 30 30 30 30 30 30 30 30 30 30 30 30 30 30 30 30 30 30 30 30 30 30 30 30 30 30 30 30 30 30 30 30 30 30 30 30 30 30 30 30 30 30 30 30 30 30 30 30 30 30 30 30 30 30 30 30 30 30 30 30 30 30 30 30 30 30 30 30 30 30 30
C(N=[N+]=[N-])C1(OC(C(O)C(O)1)N2(C=CC(=O)NC(=O)2))
InChI=1S/C9H11N5O5/c10-13-11-3-4-6(16)7(17)8(19-4)14-2-1-5(15)12-9(14)18/h1-2,4,6-8,16-17H,3H2,(H,12,15,18)/t4-,6-,7-,8-/m1/s1
