24
metacyc CPD0-1499  -231.02999908 -231.02999908 -231.02999908 -231.02999908 -231.02999908 -231.02999908 -231.02999908 -231.02999908 -231.02999908 -231.02999908 -231.02999908 -231.02999908 -231.02999908 -231.02999908 -231.02999908
C          0.90697       -0.01856        0.09536
C          0.39604        0.67756        1.36837
C         -1.13994        0.66609        1.46702
N         -1.64074       -0.71132        1.61002
C         -1.72531        1.46672        2.65966
O         -0.99728        1.57616        3.69066
O         -2.87814        1.96118        2.46300
C          2.43514        0.06506       -0.06030
C          2.96313       -0.69971       -1.29464
N          2.41118       -0.22082       -2.60681
O          2.74163        1.19319       -2.71928
C          4.53609       -0.74765       -1.38024
O          5.15095        0.29400       -0.99993
O          5.02627       -1.81391       -1.86421
H          0.42165        0.44736       -0.76914
H          0.61010       -1.07446        0.10576
H          0.73993        1.71858        1.36996
H          0.84190        0.20166        2.25088
H         -1.55615        1.08841        0.54815
H          2.90689       -0.35673        0.83694
H          2.74167        1.11801       -0.09664
H          2.63845       -1.74465       -1.19341
H          1.39565       -0.19311       -2.53584
H          3.68257        1.15071       -2.99262
24 24 24 24 24 24 24 24 24 24 24 24 24 24 24 24 24 24 24 24 24 24 24 24 24 24 24 24 24 24 24 24 24 24 24 24 24 24 24 24 24 24 24 24 24 24 24 24 24 24 24 24 24 24 24 24 24 24 24 24 24 24 24 24 24 24 24
C(CC([N+])C(=O)[O-])CC(NO)C(=O)[O-]
InChI=1S/C7H14N2O5/c8-4(6(10)11)2-1-3-5(9-14)7(12)13/h4-5,9,14H,1-3,8H2,(H,10,11)(H,12,13)/p-1
