18
metacyc CPD0-2559  -73.40501648 -73.40501648 -73.40501648 -73.40501648 -73.40501648 -73.40501648 -73.40501648 -73.40501648 -73.40501648 -73.40501648 -73.40501648 -73.40501648 -73.40501648 -73.40501648 -73.40501648
C         -1.47338       -0.59141       -0.03199
C         -0.50883       -1.51533       -0.03486
C          0.97456       -1.38630        0.02592
C          1.67757       -0.05690       -0.10249
O          3.04171       -0.22385       -0.33382
C          1.17454        1.18931       -0.04754
C         -0.22227        1.57406        0.07330
C         -1.33383        0.82926        0.06422
C          2.11159        2.47292       -0.06806
O          3.15953        2.41389        0.64262
O          1.65393        3.46988       -0.71037
H         -2.50645       -0.93455       -0.08375
H         -0.84354       -2.54833       -0.07893
H          1.35759       -2.02370       -0.78882
H          1.31363       -1.85501        0.96025
H          3.34720       -0.97254        0.20010
H         -0.38195        2.65240        0.14664
H         -2.27898        1.36822        0.12318
18 18 18 18 18 18 18 18 18 18 18 18 18 18 18 18 18 18 18 18 18 18 18 18 18 18 18 18 18 18 18 18 18 18 18 18 18 18 18 18 18 18 18 18 18 18 18 18 18
C1(=CCC(O)=C(C=C1)C(=O)[O-])
InChI=1S/C8H8O3/c9-7-5-3-1-2-4-6(7)8(10)11/h1-4,9H,5H2,(H,10,11)/p-1
