26
metacyc CPD0-1655  -387.8377628 -387.8377628 -387.8377628 -387.8377628 -387.8377628 -387.8377628 -387.8377628 -387.8377628 -387.8377628 -387.8377628 -387.8377628 -387.8377628 -387.8377628 -387.8377628 -387.8377628
C          0.83759       -0.18020       -0.03367
O          0.21208        1.09279        0.00993
C          2.36958       -0.10794        0.08672
O          2.88750       -1.43555        0.14425
C          3.02136        0.71954       -1.05213
O          2.50822        2.06554       -0.97748
C          4.57183        0.79037       -0.99695
O          4.94924        1.37042        0.26170
C          5.26175       -0.55637       -1.28135
O          4.83453       -1.06533       -2.54791
C          6.78676       -0.42108       -1.27300
N          7.40809       -0.73897       -0.09789
O          7.42125       -0.09636       -2.26987
H          0.54722       -0.68828       -0.95959
H          0.43637       -0.78241        0.78949
H          0.72270        1.68696       -0.58074
H          2.59716        0.37889        1.04273
H          2.67228       -1.87796       -0.70015
H          2.71110        0.31512       -2.02194
H          3.06883        2.53066       -0.32052
H          4.89015        1.51382       -1.76029
H          4.84732        0.69470        0.95677
H          5.02331       -1.30592       -0.52660
H          5.44627       -0.67900       -3.21069
H          6.94429       -1.27240        0.62419
H          8.41922       -0.76021       -0.10938
26 26 26 26 26 26 26 26 26 26 26 26 26 26 26 26 26 26 26 26 26 26 26 26 26 26 26 26 26 26 26 26 26 26 26 26 26 26 26 26 26 26 26 26 26 26 26 26 26 26 26 26 26 26 26 26 26 26 26 26 26 26 26 26 26 26 26 26 26 26 26 26 26
C(O)C(O)C(O)C(O)C(O)C(N)=O
InChI=1S/C6H13NO6/c7-6(13)5(12)4(11)3(10)2(9)1-8/h2-5,8-12H,1H2,(H2,7,13)/t2-,3-,4+,5+/m1/s1
