15
metacyc CPD0-1272  -842.38994952 -842.38994952 -842.38994952 -842.38994952 -842.38994952 -842.38994952 -842.38994952 -842.38994952 -842.38994952 -842.38994952 -842.38994952 -842.38994952 -842.38994952 -842.38994952 -842.38994952
C          0.98069       -0.09153       -0.07990
O          0.39872        0.94654        0.34483
O          0.44553       -1.17628       -0.47546
C          2.53261       -0.07897       -0.07596
O          3.19414        1.15119       -0.07323
C          4.59098        1.15414       -0.06719
C          5.33427        2.51667       -0.06786
O          4.69463        3.51758       -0.49779
O          6.54270        2.47806        0.33022
C          5.32388        0.03046       -0.06172
C          4.64605       -1.27236       -0.06610
O          5.27731       -2.32638       -0.06319
C          3.17758       -1.25528       -0.07488
H          6.40500        0.03581       -0.05350
H          2.66267       -2.20609       -0.08055
15 15 15 15 15 15 15 15 15 15 15 15 15 15 15 15 15 15 15 15 15 15 15 15 15 15 15 15 15 15 15 15 15 15 15 15 15 15 15 15
C(=O)([O-])C1(OC(C(=O)[O-])=CC(=O)C=1)
InChI=1S/C7H4O6/c8-3-1-4(6(9)10)13-5(2-3)7(11)12/h1-2H,(H,9,10)(H,11,12)/p-2
