14
metacyc CPD0-2082  -179.232426352 -179.232426352 -179.232426352 -179.232426352 -179.232426352 -179.232426352 -179.232426352 -179.232426352 -179.232426352 -179.232426352 -179.232426352 -179.232426352 -179.232426352 -179.232426352 -179.232426352
C         -0.61043       -1.20234        0.02738
N         -1.37945       -0.04834       -0.00001
O         -2.65128       -0.13579        0.01683
C         -0.73634        1.17227       -0.04527
C          0.66164        1.26711       -0.06409
C          1.32917        2.61597       -0.11513
O          2.59847        2.62695       -0.12991
O          0.56703        3.62959       -0.13937
C          1.41027        0.08243       -0.03485
C          0.77965       -1.15528        0.01082
H         -1.19899       -2.10479        0.06173
H         -1.40448        2.02060       -0.06448
H          2.49875        0.14338       -0.04879
H          1.36436       -2.06862        0.03291
14 14 14 14 14 14 14 14 14 14 14 14 14 14 14 14 14 14 14 14 14 14 14 14 14 14 14 14 14 14 14 14 14 14 14 14 14
C1(=N(=O)C=C(C(=O)[O-])C=C1)
InChI=1S/C6H5NO3/c8-6(9)5-2-1-3-7(10)4-5/h1-4H,(H,8,9)/p-1
