16
metacyc CPD0-2053  -103.558326256 -103.558326256 -103.558326256 -103.558326256 -103.558326256 -103.558326256 -103.558326256 -103.558326256 -103.558326256 -103.558326256 -103.558326256 -103.558326256 -103.558326256 -103.558326256 -103.558326256
C          2.45840        1.08077        1.89569
C          2.50325        0.18271        0.67242
O          3.01181       -1.09646        1.07618
C          4.35451       -1.21781        1.05909
O          5.15915       -0.44623        0.56840
C          4.78131       -2.45455        1.86221
O          3.95073       -3.22041        2.33786
C          6.25548       -2.62292        2.09245
H          2.05565        2.06585        1.64862
H          3.45810        1.20473        2.32506
H          1.83704        0.62724        2.67589
H          3.10124        0.62482       -0.12996
H          1.49286        0.02780        0.28235
H          6.84552       -1.94155        1.47682
H          6.54077       -3.64519        1.83399
H          6.47719       -2.42539        3.14524
16 16 16 16 16 16 16 16 16 16 16 16 16 16 16 16 16 16 16 16 16 16 16 16 16 16 16 16 16 16 16 16 16 16 16 16 16 16 16 16 16 16 16
CCOC(=O)C(=O)C
InChI=1S/C5H8O3/c1-3-8-5(7)4(2)6/h3H2,1-2H3
