21
metacyc CPD0-1530  -111.693704224 -111.693704224 -111.693704224 -111.693704224 -111.693704224 -111.693704224 -111.693704224 -111.693704224 -111.693704224 -111.693704224 -111.693704224 -111.693704224 -111.693704224 -111.693704224 -111.693704224
C          1.01041       -0.05150       -0.04321
C          0.42374       -1.16848        0.83914
C         -1.11147       -1.18529        0.84360
N         -1.63746       -1.44639       -0.50466
C         -1.73921       -2.26346        1.76789
O         -1.05586       -3.30905        1.97939
O         -2.87954       -1.96932        2.24530
C          2.54341        0.00402        0.03207
F          3.03398       -1.23041       -0.32454
C          3.20519        1.04334       -0.87568
N          2.83733        0.84869       -2.28688
C          2.91697        2.49602       -0.45383
O          2.66517        2.66603        0.77920
O          3.03752        3.39592       -1.33939
H          0.59024        0.91194        0.26611
H          0.70384       -0.22855       -1.07935
H          0.77804       -1.03825        1.87020
H          0.81295       -2.13781        0.50060
H         -1.47546       -0.20430        1.17237
H          2.85331        0.15614        1.07206
H          4.29187        0.91113       -0.80848
21 21 21 21 21 21 21 21 21 21 21 21 21 21 21 21 21 21 21 21 21 21 21 21 21 21 21 21 21 21 21 21 21 21 21 21 21 21 21 21 21 21 21 21 21 21 21 21 21 21 21 21 21 21 21 21 21 21
C(CC([N+])C(=O)[O-])C(F)C([N+])C(=O)[O-]
InChI=1S/C7H13FN2O4/c8-3(5(10)7(13)14)1-2-4(9)6(11)12/h3-5H,1-2,9-10H2,(H,11,12)(H,13,14)/t3-,4+,5+/m1/s1
