15
metacyc CPD0-2359  -518.80587472 -518.80587472 -518.80587472 -518.80587472 -518.80587472 -518.80587472 -518.80587472 -518.80587472 -518.80587472 -518.80587472 -518.80587472 -518.80587472 -518.80587472 -518.80587472 -518.80587472
C          0.65940        1.13826       -0.24588
C          0.82880        1.43061       -1.79793
O         -0.09495        2.12804       -2.31296
O          1.88646        0.96454       -2.31670
N         -0.71429        1.09868        0.20832
C         -1.40156       -0.06557        0.06890
O         -2.62917       -0.10668        0.09194
N         -0.64812       -1.19248       -0.04624
C          0.70690       -1.24601        0.07003
O          1.31203       -2.31511        0.09070
N          1.34020       -0.05315        0.21452
H          1.13180        1.98372        0.26832
H         -1.26556        1.90465       -0.05964
H         -1.13682       -2.06523       -0.13137
H          2.31509       -0.10454       -0.05421
15 15 15 15 15 15 15 15 15 15 15 15 15 15 15 15 15 15 15 15 15 15 15 15 15 15 15 15 15 15 15 15 15 15 15 15 15 15 15 15
C1(C(=O)[O-])(NC(=O)NC(=O)N1)
InChI=1S/C4H5N3O4/c8-2(9)1-5-3(10)7-4(11)6-1/h1H,(H,8,9)(H3,5,6,7,10,11)/p-1
