14
metacyc CPD0-1378  -94.650335032 -94.650335032 -94.650335032 -94.650335032 -94.650335032 -94.650335032 -94.650335032 -94.650335032 -94.650335032 -94.650335032 -94.650335032 -94.650335032 -94.650335032 -94.650335032 -94.650335032
C          1.05159        0.06581        0.05698
O          0.59772       -0.42688        1.31657
C          2.57596        0.10581       -0.01580
C          3.05189        0.54783       -1.39138
O          3.79073       -0.13677       -2.09772
N          2.58241        1.77169       -1.81892
O          3.10313        2.23363       -3.05002
N          3.09860        1.05873        0.97016
H          0.60140        1.05280       -0.10097
H          0.65199       -0.59706       -0.72074
H          0.97061        0.15203        2.00639
H          2.98953       -0.88416        0.20668
H          2.24871        2.48758       -1.17741
H          3.70228        1.50475       -3.31993
14 14 14 14 14 14 14 14 14 14 14 14 14 14 14 14 14 14 14 14 14 14 14 14 14 14 14 14 14 14 14 14 14 14 14 14 14
C(O)C(C(=O)NO)[N+]
InChI=1S/C3H8N2O3/c4-2(1-6)3(7)5-8/h2,6,8H,1,4H2,(H,5,7)/p+1
