20
metacyc CPD0-2624  -118.583584888 -118.583584888 -118.583584888 -118.583584888 -118.583584888 -118.583584888 -118.583584888 -118.583584888 -118.583584888 -118.583584888 -118.583584888 -118.583584888 -118.583584888 -118.583584888 -118.583584888
C          1.09110       -0.44267       -0.19958
H          0.75555       -0.83772       -1.17444
O          0.30877       -0.34982        0.74194
C          2.54906       -0.07139       -0.10884
C          2.90115        1.00052       -1.10816
C          2.79230        2.35663       -0.75983
C          3.04269        3.36487       -1.69890
C          3.39486        3.02769       -3.00418
O          3.63586        4.01014       -3.91777
C          3.50984        1.68213       -3.34792
N          3.84772        1.29725       -4.70263
O          3.05126        1.60398       -5.60029
O          4.86827        0.60904       -4.84896
C          3.27401        0.66263       -2.41544
H          3.14635       -0.97277       -0.28431
H          2.77077        0.26758        0.90957
H          2.50255        2.63988        0.25252
H          2.95558        4.40328       -1.39029
H          3.35325        4.86933       -3.56022
H          3.36625       -0.38012       -2.71424
20 20 20 20 20 20 20 20 20 20 20 20 20 20 20 20 20 20 20 20 20 20 20 20 20 20 20 20 20 20 20 20 20 20 20 20 20 20 20 20 20 20 20 20 20 20 20 20 20 20 20 20 20 20 20
[CH](=O)CC1(C=CC(O)=C([N+]([O-])=O)C=1)
InChI=1S/C8H7NO4/c10-4-3-6-1-2-8(11)7(5-6)9(12)13/h1-2,4-5,11H,3H2
