19
metacyc CPD0-1627  -79.290385688 -79.290385688 -79.290385688 -79.290385688 -79.290385688 -79.290385688 -79.290385688 -79.290385688 -79.290385688 -79.290385688 -79.290385688 -79.290385688 -79.290385688 -79.290385688 -79.290385688
C          1.04783        0.67553       -0.00867
N          0.82955        1.70050        0.77621
N          0.58569        2.67724        1.50533
C          2.43115        0.13466       -0.01975
O          2.84575       -0.20752       -1.11994
C          3.14556       -0.04223        1.30142
C          4.65762       -0.15396        1.10556
C          5.40314       -0.23238        2.43837
C          5.07351       -1.48216        3.29145
O          4.68407       -2.50863        2.66193
O          5.14919       -1.30616        4.54482
N          6.84826       -0.26457        2.17631
H          0.31468        0.24839       -0.70515
H          0.19527        2.38403        2.40882
H          2.73406       -0.93528        1.78226
H          2.93668        0.81953        1.94526
H          5.00488        0.72546        0.54591
H          4.88437       -1.02537        0.47790
H          5.18313        0.66356        3.03031
19 19 19 19 19 19 19 19 19 19 19 19 19 19 19 19 19 19 19 19 19 19 19 19 19 19 19 19 19 19 19 19 19 19 19 19 19 19 19 19 19 19 19 19 19 19 19 19 19 19 19 19
C(=[N+]=N)C(=O)CCC(C([O-])=O)[N+]
InChI=1S/C6H9N3O3/c7-5(6(11)12)2-1-4(10)3-9-8/h3,5,8H,1-2,7H2/p+1
