22
metacyc CPD0-1535  -242.355338144 -242.355338144 -242.355338144 -242.355338144 -242.355338144 -242.355338144 -242.355338144 -242.355338144 -242.355338144 -242.355338144 -242.355338144 -242.355338144 -242.355338144 -242.355338144 -242.355338144
C          0.86358       -0.10810        0.22253
O          0.24251       -0.97431       -0.46137
O          0.36922        0.82709        0.92779
C          2.41543       -0.14500        0.17300
N          2.84197       -0.98233        1.30208
C          2.98631       -0.66795       -1.15240
C          4.52837       -0.62562       -1.21530
C          5.07608       -1.13065       -2.56474
O          4.53874       -0.30142       -3.62098
C          6.60473       -1.13279       -2.70342
N          7.17590        0.21703       -2.55138
C          7.28415       -2.10735       -1.72150
O          7.66036       -1.65402       -0.60200
O          7.41656       -3.28915       -2.16770
H          2.78397        0.87437        0.34068
H          2.57257       -0.05839       -1.96727
H          2.64842       -1.69514       -1.33567
H          4.94108       -1.23446       -0.40549
H          4.84644        0.41134       -1.04860
H          4.69724       -2.14521       -2.74279
H          4.95085        0.56924       -3.48483
H          6.85821       -1.45142       -3.72191
22 22 22 22 22 22 22 22 22 22 22 22 22 22 22 22 22 22 22 22 22 22 22 22 22 22 22 22 22 22 22 22 22 22 22 22 22 22 22 22 22 22 22 22 22 22 22 22 22 22 22 22 22 22 22 22 22 22 22 22 22
C([O-])(=O)C([N+])CCC(O)C([N+])C([O-])=O
InChI=1S/C7H14N2O5/c8-3(6(11)12)1-2-4(10)5(9)7(13)14/h3-5,10H,1-2,8-9H2,(H,11,12)(H,13,14)/t3-,4?,5-/m0/s1
