22
metacyc CPD0-2077  -120.782402408 -120.782402408 -120.782402408 -120.782402408 -120.782402408 -120.782402408 -120.782402408 -120.782402408 -120.782402408 -120.782402408 -120.782402408 -120.782402408 -120.782402408 -120.782402408 -120.782402408
C          0.97138        0.11294        0.04286
C          2.50153        0.05553        0.03369
N          3.05893        1.38778        0.42715
C          2.97613       -0.97469        1.09412
O          2.42701       -2.03265        1.35536
O          4.11066       -0.54958        1.71245
C          3.07559       -0.37859       -1.33172
C          2.69704        0.52170       -2.51251
C          3.29853        0.03801       -3.81063
O          4.01654       -0.93789       -3.93674
O          2.94933        0.82046       -4.85886
H          0.58786        0.36237        1.03901
H          0.54203       -0.85760       -0.23133
H          0.58154        0.86083       -0.65570
H          2.56450        1.69954        1.27250
H          2.79817        2.08366       -0.27346
H          4.31510        0.34123        1.33630
H          2.74966       -1.40522       -1.54862
H          4.17175       -0.43675       -1.26309
H          3.06209        1.53974       -2.34678
H          1.61089        0.54308       -2.64082
H          2.36964        1.56943       -4.62623
22 22 22 22 22 22 22 22 22 22 22 22 22 22 22 22 22 22 22 22 22 22 22 22 22 22 22 22 22 22 22 22 22 22 22 22 22 22 22 22 22 22 22 22 22 22 22 22 22 22 22 22 22 22 22 22 22 22 22 22 22
CC(N)(C(=O)O)CCC(=O)O
InChI=1S/C6H11NO4/c1-6(7,5(10)11)3-2-4(8)9/h2-3,7H2,1H3,(H,8,9)(H,10,11)
