22
metacyc CPD0-1944  -350.827354 -350.827354 -350.827354 -350.827354 -350.827354 -350.827354 -350.827354 -350.827354 -350.827354 -350.827354 -350.827354 -350.827354 -350.827354 -350.827354 -350.827354
C          5.08906       -0.33361        2.88256
C          4.43128        0.57899        1.85936
N          5.25683        0.53990        0.64181
C          2.97242        0.26402        1.47363
N          2.17658       -0.19552        2.48913
C          0.71458       -0.41265        2.41495
C          0.33410       -1.76376        1.80979
C          0.70132       -3.05461        2.54319
O          1.76210       -3.04563        3.23191
O         -0.05140       -4.04582        2.28408
C         -0.01352       -0.11140        3.77337
O          0.74577        0.28882        4.71503
O         -1.27973       -0.15529        3.75563
O          2.53111        0.54260        0.35541
H          6.13975       -0.05221        3.03169
H          5.06037       -1.38348        2.57301
H          4.60291       -0.25375        3.85967
H          4.44364        1.60771        2.23709
H          2.52446       -0.44125        3.41060
H          0.34240        0.35796        1.72595
H          0.78206       -1.84763        0.81066
H         -0.75405       -1.77819        1.65645
22 22 22 22 22 22 22 22 22 22 22 22 22 22 22 22 22 22 22 22 22 22 22 22 22 22 22 22 22 22 22 22 22 22 22 22 22 22 22 22 22 22 22 22 22 22 22 22 22 22 22 22 22 22 22 22 22 22 22 22 22
CC([N+])C(NC(CC(=O)[O-])C(=O)[O-])=O
InChI=1S/C7H12N2O5/c1-3(8)6(12)9-4(7(13)14)2-5(10)11/h3-4H,2,8H2,1H3,(H,9,12)(H,10,11)(H,13,14)/p-1/t3-,4+/m0/s1
