23
metacyc CPD0-1112  -246.00480704 -246.00480704 -246.00480704 -246.00480704 -246.00480704 -246.00480704 -246.00480704 -246.00480704 -246.00480704 -246.00480704 -246.00480704 -246.00480704 -246.00480704 -246.00480704 -246.00480704
C          1.03942       -0.04020        0.07999
C          2.55293       -0.11562       -0.11559
O          2.97582       -1.43785       -0.47363
C          2.60606       -1.85461       -1.78914
C          3.11929       -0.89169       -2.87866
C          2.69090        0.54505       -2.55087
C          3.10743        0.91131       -1.11755
O          4.55410        0.88681       -1.07003
O          3.28171        1.46453       -3.47369
O          4.56124       -0.99666       -2.95317
O          3.15725       -3.14633       -2.00683
H          0.71416       -0.81125        0.78653
H          0.48547       -0.21369       -0.84654
H          0.74510        0.93835        0.47206
H          3.01303        0.07624        0.86077
H          1.51576       -1.95383       -1.84267
H          2.75550       -1.19595       -3.86591
H          1.60538        0.63759       -2.66054
H          2.79780        1.93267       -0.87033
H          4.81871        0.81413       -0.13365
H          4.24781        1.36876       -3.35652
H          4.90978       -0.52301       -2.16693
H          4.05863       -2.97407       -2.33990
23 23 23 23 23 23 23 23 23 23 23 23 23 23 23 23 23 23 23 23 23 23 23 23 23 23 23 23 23 23 23 23 23 23 23 23 23 23 23 23 23 23 23 23 23 23 23 23 23 23 23 23 23 23 23 23 23 23 23 23 23 23 23 23
CC1(OC(C(C(C1O)O)O)O)
InChI=1S/C6H12O5/c1-2-3(7)4(8)5(9)6(10)11-2/h2-10H,1H3/t2-,3-,4+,5+,6-/m0/s1
