12
metacyc CPD0-1327  -335.75192084 -335.75192084 -335.75192084 -335.75192084 -335.75192084 -335.75192084 -335.75192084 -335.75192084 -335.75192084 -335.75192084 -335.75192084 -335.75192084 -335.75192084 -335.75192084 -335.75192084
C         -0.73818        1.15771        0.00864
C          0.59088        1.26257       -0.00981
C          1.42092        0.03636       -0.01704
O          2.64577        0.06714       -0.04775
N          0.71666       -1.14280        0.01024
C         -0.64780       -1.25599        0.02190
N         -1.34137       -0.07225        0.02188
O         -1.21742       -2.34086        0.03012
F          1.22366        2.44941       -0.02515
H         -1.38335        2.02873        0.01231
H          1.24888       -1.99876        0.00475
H         -2.35277       -0.15273        0.03129
12 12 12 12 12 12 12 12 12 12 12 12 12 12 12 12 12 12 12 12 12 12 12 12 12 12 12 12 12 12 12
C1(=C(C(=O)NC(N1)=O)F)
InChI=1S/C4H3FN2O2/c5-2-1-6-4(9)7-3(2)8/h1H,(H2,6,7,8,9)
