21
metacyc CPD0-2184  -441.37647784 -441.37647784 -441.37647784 -441.37647784 -441.37647784 -441.37647784 -441.37647784 -441.37647784 -441.37647784 -441.37647784 -441.37647784 -441.37647784 -441.37647784 -441.37647784 -441.37647784
C          0.89717       -0.17571        0.06754
O          0.37501       -0.97242        0.89708
O          0.33915        0.61030       -0.75022
C          2.41612       -0.13885        0.03666
C          3.17226       -0.90517        0.83846
C          4.65540       -0.81867        0.77140
O          5.23105       -0.04759        0.01108
C          5.38881       -1.72785        1.69913
C          6.73330       -1.72956        1.70687
C          7.53685       -2.58324        2.56101
C          8.88120       -2.66033        2.62861
C          9.93555       -1.81908        1.76499
O         11.06488       -1.65490        2.31985
O          9.55048       -1.43810        0.62400
O          9.46036       -3.56320        3.53875
H          2.87481        0.54715       -0.67192
H          2.71333       -1.58975        1.54293
H          4.80491       -2.37136        2.34368
H          7.26702       -1.06279        1.03073
H          6.95668       -3.22748        3.21608
H          8.75364       -3.96769        4.05712
21 21 21 21 21 21 21 21 21 21 21 21 21 21 21 21 21 21 21 21 21 21 21 21 21 21 21 21 21 21 21 21 21 21 21 21 21 21 21 21 21 21 21 21 21 21 21 21 21 21 21 21 21 21 21 21 21 21
C([O-])(=O)C=CC(=O)C=CC=C(C([O-])=O)O
InChI=1S/C9H8O6/c10-6(4-5-8(12)13)2-1-3-7(11)9(14)15/h1-5,11H,(H,12,13)(H,14,15)/p-2/b2-1+,5-4+,7-3-
