33
metacyc CPD0-1293  -72.466080856 -72.466080856 -72.466080856 -72.466080856 -72.466080856 -72.466080856 -72.466080856 -72.466080856 -72.466080856 -72.466080856 -72.466080856 -72.466080856 -72.466080856 -72.466080856 -72.466080856
C          3.12044       -1.80300        2.02033
C          2.66478       -2.15260        0.60502
C          1.14186       -2.07852        0.52749
O          3.18037       -1.24744       -0.37960
C          4.59488       -1.27920       -0.54184
O          5.07748       -2.56187       -0.98306
C          4.55265       -2.93574       -2.28081
C          5.00421       -4.37297       -2.56005
O          4.45088       -5.24870       -1.57618
C          5.06035       -1.95622       -3.34395
O          6.48628       -2.03625       -3.48504
C          4.64214       -0.52884       -2.95653
O          5.20728        0.40820       -3.87951
C          5.05693       -0.17417       -1.51996
O          6.48895        0.00440       -1.45187
H          2.63209       -2.44591        2.75934
H          2.89590       -0.75789        2.25787
H          4.19966       -1.93618        2.14003
H          2.97316       -3.17422        0.35671
H          0.78809       -1.06062        0.72476
H          0.67484       -2.75536        1.24811
H          0.79455       -2.34504       -0.47522
H          5.08254       -1.07678        0.41670
H          3.45689       -2.92196       -2.23010
H          6.09294       -4.47684       -2.50373
H          4.66675       -4.70945       -3.54422
H          4.72142       -4.88532       -0.71231
H          4.64702       -2.20236       -4.32876
H          6.86894       -2.31048       -2.63481
H          3.55157       -0.44684       -3.04133
H          6.17583        0.31316       -3.77148
H          4.61358        0.79065       -1.24874
H          6.88292       -0.83158       -1.15308
33 33 33 33 33 33 33 33 33 33 33 33 33 33 33 33 33 33 33 33 33 33 33 33 33 33 33 33 33 33 33 33 33 33 33 33 33 33 33 33 33 33 33 33 33 33 33 33 33 33 33 33 33 33 33 33 33 33 33 33 33 33 33 33 33 33 33 33 33 33 33 33 33 33 33 33 33 33 33 33 33 33 33 33 33 33 33 33 33 33 33 33 33 33
CC(C)OC1(OC(CO)C(O)C(O)C(O)1)
InChI=1S/C9H18O6/c1-4(2)14-9-8(13)7(12)6(11)5(3-10)15-9/h4-13H,3H2,1-2H3/t5-,6+,7+,8-,9-/m1/s1
