28
metacyc CPD0-1312  -152.534272144 -152.534272144 -152.534272144 -152.534272144 -152.534272144 -152.534272144 -152.534272144 -152.534272144 -152.534272144 -152.534272144 -152.534272144 -152.534272144 -152.534272144 -152.534272144 -152.534272144
C         -0.27187       -1.21732        0.10296
N          0.54441       -0.74749       -0.77585
C          0.70157        0.61874       -0.86221
O          1.44554        1.13346       -1.71056
N         -0.01648        1.42829        0.02303
C          0.05032        2.86755       -0.21271
O         -1.07594        3.52973        0.39175
C         -0.66229        4.88013        0.67521
C         -0.95487        5.74288       -0.55742
O         -2.35011        5.66729       -0.86384
C          0.80401        4.78399        1.07012
O          1.52624        5.98332        0.81159
C          1.32646        3.58701        0.27736
O          2.13887        4.11565       -0.79434
C         -0.85847        0.88804        0.97314
C         -1.04323       -0.42393        1.06608
H         -0.42196       -2.30769        0.16693
H         -0.05615        3.01695       -1.29464
H         -1.27231        5.23706        1.51062
H         -0.41456        5.38954       -1.44109
H         -0.69969        6.79141       -0.38646
H         -2.60755        4.73182       -0.75326
H          0.87243        4.56767        2.14230
H          2.07633        5.79339        0.01929
H          1.96567        2.94565        0.90270
H          2.00742        3.56055       -1.58828
H         -1.39513        1.56948        1.62520
H         -1.71473       -0.90748        1.76674
28 28 28 28 28 28 28 28 28 28 28 28 28 28 28 28 28 28 28 28 28 28 28 28 28 28 28 28 28 28 28 28 28 28 28 28 28 28 28 28 28 28 28 28 28 28 28 28 28 28 28 28 28 28 28 28 28 28 28 28 28 28 28 28 28 28 28 28 28 28 28 28 28 28 28 28 28 28 28
C2(=NC(=O)N(C1(OC(CO)C(O)C(O)1))C=C2)
InChI=1S/C9H12N2O5/c12-4-5-6(13)7(14)8(16-5)11-3-1-2-10-9(11)15/h1-3,5-8,12-14H,4H2/t5-,6-,7-,8-/m1/s1
