31
metacyc CPD0-1520  -300.37335572 -300.37335572 -300.37335572 -300.37335572 -300.37335572 -300.37335572 -300.37335572 -300.37335572 -300.37335572 -300.37335572 -300.37335572 -300.37335572 -300.37335572 -300.37335572 -300.37335572
C          3.35857        0.55290       -1.56720
C          3.90570        0.81829       -0.16993
O          2.89057        1.22031        0.78093
C          2.12966        2.39126        0.48017
C          1.06284        2.57676        1.58248
N          0.19478        1.40988        1.75099
C          1.74329        2.96537        2.91053
O          2.42535        4.21228        2.71771
C          3.52965        4.06870        1.79683
C          4.23722        5.43215        1.76460
O          4.67632        5.79748        3.07542
C          2.99467        3.67322        0.40385
O          2.19170        4.73669       -0.14616
O          0.78505        3.18815        3.94635
C          4.65051       -0.44543        0.38232
O          4.34295       -1.56046       -0.12751
O          5.52195       -0.18335        1.27045
H          2.89070        1.44369       -1.99580
H          2.59962       -0.23616       -1.55914
H          4.16467        0.25024       -2.24554
H          4.66285        1.60781       -0.22634
H          1.59456        2.24676       -0.46448
H          0.40363        3.40367        1.28916
H          2.44314        2.19992        3.26710
H          4.21655        3.31329        2.19963
H          3.55762        6.22760        1.43900
H          5.10448        5.41732        1.09967
H          3.92588        5.58936        3.66688
H          3.83542        3.54568       -0.28040
H          1.70170        5.13757        0.59881
H         -0.07264        2.88050        3.61036
31 31 31 31 31 31 31 31 31 31 31 31 31 31 31 31 31 31 31 31 31 31 31 31 31 31 31 31 31 31 31 31 31 31 31 31 31 31 31 31 31 31 31 31 31 31 31 31 31 31 31 31 31 31 31 31 31 31 31 31 31 31 31 31 31 31 31 31 31 31 31 31 31 31 31 31 31 31 31 31 31 31 31 31 31 31 31 31
CC(OC1(C([N+])C(OC(CO)C1O)O))C(=O)[O-]
InChI=1S/C9H17NO7/c1-3(8(13)14)16-7-5(10)9(15)17-4(2-11)6(7)12/h3-7,9,11-12,15H,2,10H2,1H3,(H,13,14)/t3-,4-,5-,6-,7-,9?/m1/s1
