13
metacyc CPD0-1310  -402.73702864 -402.73702864 -402.73702864 -402.73702864 -402.73702864 -402.73702864 -402.73702864 -402.73702864 -402.73702864 -402.73702864 -402.73702864 -402.73702864 -402.73702864 -402.73702864 -402.73702864
C          0.99251       -0.12142       -0.00005
O          0.42654        1.12445       -0.41124
C          2.50853       -0.05922       -0.00787
C          2.98871        0.03551       -1.43150
O          3.09453        1.11786       -2.01521
C          3.22371       -1.25028       -2.22557
O          2.92242       -2.32213       -1.60943
O          3.68081       -1.14939       -3.40562
H          0.60214       -0.90948       -0.65055
H          0.63567       -0.31096        1.01755
H          0.85812        1.36062       -1.25819
H          2.94336       -0.93889        0.47604
H          2.87141        0.82474        0.52913
13 13 13 13 13 13 13 13 13 13 13 13 13 13 13 13 13 13 13 13 13 13 13 13 13 13 13 13 13 13 13 13 13 13
C(O)CC(=O)C(=O)[O-]
InChI=1S/C4H6O4/c5-2-1-3(6)4(7)8/h5H,1-2H2,(H,7,8)/p-1
