16
metacyc CPD0-2338  -316.24044352 -316.24044352 -316.24044352 -316.24044352 -316.24044352 -316.24044352 -316.24044352 -316.24044352 -316.24044352 -316.24044352 -316.24044352 -316.24044352 -316.24044352 -316.24044352 -316.24044352
C          1.09168       -0.11844        0.04040
N          0.34111        0.69401       -0.77014
C         -1.01165        0.80127       -0.87713
N         -1.78017        0.01743       -0.09515
O         -1.52008        1.59146       -1.66546
C          2.43032       -0.10781        0.02980
C          3.14693       -1.02443        0.94425
O          2.59831       -1.79676        1.71475
O          4.48760       -0.84116        0.76141
O          5.17796       -1.75314        1.67124
H          0.55964       -0.78861        0.70898
H          0.81520        1.32881       -1.40343
H         -1.42659       -0.64875        0.56946
H         -2.78135        0.11133       -0.18883
H          3.01537        0.53596       -0.61246
H          6.08161       -1.49840        1.41710
16 16 16 16 16 16 16 16 16 16 16 16 16 16 16 16 16 16 16 16 16 16 16 16 16 16 16 16 16 16 16 16 16 16 16 16 16 16 16 16 16 16 16
C(NC(N)=O)=CC(=O)OO
InChI=1S/C4H6N2O4/c5-4(8)6-2-1-3(7)10-9/h1-2,9H,(H3,5,6,8)/b2-1-
