21
metacyc CPD0-2267  -172.291295872 -172.291295872 -172.291295872 -172.291295872 -172.291295872 -172.291295872 -172.291295872 -172.291295872 -172.291295872 -172.291295872 -172.291295872 -172.291295872 -172.291295872 -172.291295872 -172.291295872
C          1.02567       -0.05257        0.01442
C          2.54131        0.08598       -0.12926
C          3.02754        1.06011       -1.23431
N          2.54303        0.56384       -2.53491
C          2.38550        2.45905       -0.91874
O          2.73920        2.98123        0.18627
O          1.50909        2.90343       -1.72148
C          4.57590        1.07212       -1.22726
C          5.25422        1.92975       -2.30250
C          6.78738        1.82959       -2.34699
O          7.34301        1.04375       -1.52677
O          7.33916        2.54222       -3.24033
H          0.79331       -0.79762        0.78068
H          0.55769       -0.37747       -0.91955
H          0.56422        0.89055        0.32411
H          2.95084       -0.91571       -0.32087
H          2.94625        0.39357        0.84390
H          4.93381        0.03828       -1.33851
H          4.93349        1.40595       -0.24405
H          4.98858        2.98271       -2.15148
H          4.89241        1.63981       -3.29601
21 21 21 21 21 21 21 21 21 21 21 21 21 21 21 21 21 21 21 21 21 21 21 21 21 21 21 21 21 21 21 21 21 21 21 21 21 21 21 21 21 21 21 21 21 21 21 21 21 21 21 21 21 21 21 21 21 21
CCC([N+])(C(=O)[O-])CCC(=O)[O-]
InChI=1S/C7H13NO4/c1-2-7(8,6(11)12)4-3-5(9)10/h2-4,8H2,1H3,(H,9,10)(H,11,12)/p-1/t7-/m0/s1
