15
metacyc CPD0-2375  -285.05554344 -285.05554344 -285.05554344 -285.05554344 -285.05554344 -285.05554344 -285.05554344 -285.05554344 -285.05554344 -285.05554344 -285.05554344 -285.05554344 -285.05554344 -285.05554344 -285.05554344
C          0.91053       -0.07243       -0.00819
O          0.37224        0.62166        1.13001
C          2.45538       -0.11999        0.03958
O          2.88641       -0.75874        1.26739
C          3.08523       -0.81947       -1.16803
N          2.59961       -2.20536       -1.27069
C          2.82091       -0.06836       -2.49016
O          2.55381        1.16536       -2.36248
O          2.95701       -0.72471       -3.55827
H          0.54576        0.44418       -0.90114
H          0.47669       -1.07582        0.01476
H          0.98883        1.35186        1.31181
H          2.83131        0.90449        0.12183
H          3.15009       -1.66278        1.02243
H          4.17043       -0.86918       -1.02818
15 15 15 15 15 15 15 15 15 15 15 15 15 15 15 15 15 15 15 15 15 15 15 15 15 15 15 15 15 15 15 15 15 15 15 15 15 15 15 15
C(O)C(O)C([N+])C(=O)[O-]
InChI=1S/C4H9NO4/c5-3(4(8)9)2(7)1-6/h2-3,6-7H,1,5H2,(H,8,9)/t2-,3-/m0/s1
