21
metacyc CPD0-1305  -254.92607828 -254.92607828 -254.92607828 -254.92607828 -254.92607828 -254.92607828 -254.92607828 -254.92607828 -254.92607828 -254.92607828 -254.92607828 -254.92607828 -254.92607828 -254.92607828 -254.92607828
C         -1.48377        0.93883       -0.04304
O         -2.51227        1.48709       -0.88171
C         -1.52148       -0.62702       -0.05092
O         -1.78824       -1.08040       -1.39423
C         -0.20781       -1.26936        0.51697
O         -0.13799       -1.08468        1.92472
C          0.89413       -0.56945       -0.19226
O          2.05605        0.08266        0.20230
C          0.90937        0.89135        0.36429
C         -0.10275        1.54270       -0.49127
O         -0.11295        2.94910       -0.23484
H         -1.69557        1.28136        0.97866
H         -2.99809        0.73157       -1.26822
H         -2.37797       -0.95488        0.54886
H         -1.18527       -0.63185       -2.01352
H         -0.18246       -2.34191        0.29970
H          0.79300       -1.21690        2.18360
H          0.87077       -0.79295       -1.25189
H          0.71919        1.13662        1.40453
H          0.05915        1.40938       -1.56391
H         -1.02046        3.24641       -0.44169
21 21 21 21 21 21 21 21 21 21 21 21 21 21 21 21 21 21 21 21 21 21 21 21 21 21 21 21 21 21 21 21 21 21 21 21 21 21 21 21 21 21 21 21 21 21 21 21 21 21 21 21 21 21 21 21 21 21
C1(O)(C(O)C(O)C2(OC(C(O)1)2))
InChI=1S/C6H10O5/c7-1-2(8)4(10)6-5(11-6)3(1)9/h1-10H/t1?,2?,3-,4?,5?,6?/m1/s1
