18
metacyc CPD0-1263  -731.37893184 -731.37893184 -731.37893184 -731.37893184 -731.37893184 -731.37893184 -731.37893184 -731.37893184 -731.37893184 -731.37893184 -731.37893184 -731.37893184 -731.37893184 -731.37893184 -731.37893184
C          0.92887       -0.02954       -0.07369
O          0.32363       -1.14673       -0.05233
O          0.35245        1.11084       -0.09021
C          2.44877       -0.02458       -0.07528
C          3.13282        1.19811       -0.06864
C          4.52090        1.21681       -0.07539
O          5.20078        2.41525       -0.07935
C          5.27212        0.03521       -0.08598
O          6.63405        0.18252       -0.13759
C          4.64119       -1.21194       -0.07603
C          5.39098       -2.53551       -0.05789
O          4.79094       -3.55062       -0.54753
O          6.55261       -2.58378        0.46440
C          3.21697       -1.21327       -0.08006
H          2.55295        2.11621       -0.06489
H          4.51169        3.10141       -0.07670
H          6.77028        1.14262       -0.07154
H          2.69509       -2.17268       -0.08477
18 18 18 18 18 18 18 18 18 18 18 18 18 18 18 18 18 18 18 18 18 18 18 18 18 18 18 18 18 18 18 18 18 18 18 18 18 18 18 18 18 18 18 18 18 18 18 18 18
C(=O)([O-])C1(=CC(O)=C(O)C(C(=O)[O-])=C1)
InChI=1S/C8H6O6/c9-5-2-3(7(11)12)1-4(6(5)10)8(13)14/h1-2,9-10H,(H,11,12)(H,13,14)/p-2
