12
metacyc CPD0-2038  -394.91370176 -394.91370176 -394.91370176 -394.91370176 -394.91370176 -394.91370176 -394.91370176 -394.91370176 -394.91370176 -394.91370176 -394.91370176 -394.91370176 -394.91370176 -394.91370176 -394.91370176
C          1.10349        0.09995        0.14896
O          0.46311        0.88084        0.82840
O          0.52722       -0.81924       -0.65082
C          2.56681        0.03653        0.09377
C          3.30398        0.87670        0.82479
F          2.78319        1.81551        1.64163
C          4.77730        0.83052        0.78461
O          5.42069        0.04869        0.10435
O          5.33047        1.75953        1.59293
H          1.12457       -1.40025       -1.15634
H          3.04178       -0.69693       -0.54439
H          4.66071        2.29965        2.06287
12 12 12 12 12 12 12 12 12 12 12 12 12 12 12 12 12 12 12 12 12 12 12 12 12 12 12 12 12 12 12
C(=O)(O)C=C(F)C(=O)O
InChI=1S/C4H3FO4/c5-2(4(8)9)1-3(6)7/h1H,(H,6,7)(H,8,9)/b2-1-
