26
metacyc CPD0-1506  -761.194074 -761.194074 -761.194074 -761.194074 -761.194074 -761.194074 -761.194074 -761.194074 -761.194074 -761.194074 -761.194074 -761.194074 -761.194074 -761.194074 -761.194074
C          2.31482        1.89131        0.05325
O          1.45328        2.35381       -0.75358
O          3.04575        2.54847        0.86476
C          2.54297        0.38099        0.09943
O          2.14548       -0.31627       -0.83316
C          3.30354       -0.16809        1.27949
C          4.81747       -0.05642        1.07091
O          5.28438        1.29436        0.97722
C          5.58470       -0.71997        2.24449
O          5.19353       -2.09016        2.41657
C          7.12368       -0.62944        2.07751
O          7.60623        0.71642        1.93384
C          7.87280       -1.26003        3.28271
O          7.59073       -2.64149        3.42102
O          9.27674       -1.10456        3.08801
H          2.99871       -1.21620        1.39658
H          2.98505        0.35786        2.18396
H          5.08113       -0.55771        0.13309
H          4.50871        1.91967        1.02175
H          5.31896       -0.18294        3.16376
H          5.18704       -2.50954        1.53470
H          7.41359       -1.17363        1.16987
H          6.89219        1.22498        1.47870
H          7.61477       -0.74129        4.21201
H          6.61639       -2.71888        3.38054
H          9.35583       -0.35161        2.47066
26 26 26 26 26 26 26 26 26 26 26 26 26 26 26 26 26 26 26 26 26 26 26 26 26 26 26 26 26 26 26 26 26 26 26 26 26 26 26 26 26 26 26 26 26 26 26 26 26 26 26 26 26 26 26 26 26 26 26 26 26 26 26 26 26 26 26 26 26 26 26 26 26
C(=O)([O-])C(=O)CC(O)C(O)C(O)C(O)O
InChI=1S/C7H12O8/c8-2(1-3(9)6(12)13)4(10)5(11)7(14)15/h2,4-5,7-8,10-11,14-15H,1H2,(H,12,13)/p-1/t2-,4-,5+/m1/s1
