21
metacyc CPD0-1501  -111.693704224 -111.693704224 -111.693704224 -111.693704224 -111.693704224 -111.693704224 -111.693704224 -111.693704224 -111.693704224 -111.693704224 -111.693704224 -111.693704224 -111.693704224 -111.693704224 -111.693704224
C          0.77131        0.03138       -0.07411
O          0.16674        0.93538       -0.72328
O          0.26095       -0.87940        0.65083
C          2.32318        0.04530       -0.11975
N          2.71245       -0.87092       -1.19983
C          2.92947        1.43876       -0.33252
C          4.46672        1.44034       -0.25802
C          5.04692        2.85106       -0.46455
F          4.51885        3.66945        0.50794
C          6.56946        2.94925       -0.37543
N          7.07468        2.45045        0.91331
C          7.29300        2.23819       -1.53866
O          6.65336        2.19989       -2.63269
O          8.47959        1.84378       -1.33150
H          2.68843       -0.36153        0.83111
H          2.53471        2.11163        0.43969
H          2.61014        1.85322       -1.29567
H          4.87760        0.76604       -1.01617
H          4.76324        1.05715        0.72450
H          4.69343        3.25511       -1.41928
H          6.84709        4.00884       -0.43972
21 21 21 21 21 21 21 21 21 21 21 21 21 21 21 21 21 21 21 21 21 21 21 21 21 21 21 21 21 21 21 21 21 21 21 21 21 21 21 21 21 21 21 21 21 21 21 21 21 21 21 21 21 21 21 21 21 21
C(=O)([O-])C([N+])CCC(F)C([N+])C(=O)[O-]
InChI=1S/C7H13FN2O4/c8-3(5(10)7(13)14)1-2-4(9)6(11)12/h3-5H,1-2,9-10H2,(H,11,12)(H,13,14)/t3-,4+,5-/m1/s1
