15
metacyc CPD0-1614  -357.74499132 -357.74499132 -357.74499132 -357.74499132 -357.74499132 -357.74499132 -357.74499132 -357.74499132 -357.74499132 -357.74499132 -357.74499132 -357.74499132 -357.74499132 -357.74499132 -357.74499132
C          1.10946       -0.04467        0.00192
C          2.64027       -0.03798       -0.04026
C          3.00761        0.27858       -1.54144
O          2.57537        1.37703       -2.02054
O          3.67094       -0.60334       -2.17115
N          3.13706        1.10078        0.75261
C          3.26795       -1.33872        0.48053
C          2.97586       -1.77691        1.91561
O          1.77088       -2.05571        2.18495
O          3.98797       -1.90591        2.66935
H          0.67443        0.86316       -0.43347
H          0.72409       -0.10712        1.02442
H          0.70954       -0.89480       -0.56333
H          4.35966       -1.28377        0.35947
H          2.95070       -2.17367       -0.16014
15 15 15 15 15 15 15 15 15 15 15 15 15 15 15 15 15 15 15 15 15 15 15 15 15 15 15 15 15 15 15 15 15 15 15 15 15 15 15 15
CC(C(=O)[O-])([N+])CC(=O)[O-]
InChI=1S/C5H9NO4/c1-5(6,4(9)10)2-3(7)8/h2,6H2,1H3,(H,7,8)(H,9,10)/p-1
