4
metacyc CPD0-1395  -372.84490088 -372.84490088 -372.84490088 -372.84490088 -372.84490088 -372.84490088 -372.84490088 -372.84490088 -372.84490088 -372.84490088 -372.84490088 -372.84490088 -372.84490088 -372.84490088 -372.84490088
N          0.94944       -0.08065        0.10650
O          0.39426        0.44361       -0.86559
O          2.33035       -0.01705       -0.01133
O          2.94832       -0.61554        1.09839
4 4 4 4 4 4 4
N(=O)O[O-]
InChI=1S/HNO3/c2-1-4-3/h3H/p-1
