16
metacyc CPD0-1271  -599.9642616 -599.9642616 -599.9642616 -599.9642616 -599.9642616 -599.9642616 -599.9642616 -599.9642616 -599.9642616 -599.9642616 -599.9642616 -599.9642616 -599.9642616 -599.9642616 -599.9642616
C          0.93823       -0.10655       -0.06836
O          0.39356        1.03854       -0.07086
O          0.38448       -1.24820       -0.06760
C          2.51438       -0.09644       -0.06596
N          3.23237        1.09271       -0.06599
C          4.61979        1.16112       -0.06492
C          5.37424        2.54517       -0.06633
O          4.62302        3.56671       -0.06801
O          6.64202        2.49285       -0.06576
C          5.35052        0.03295       -0.06281
C          4.64677       -1.27460       -0.06196
O          5.27818       -2.33157       -0.05973
C          3.16182       -1.27450       -0.06404
H          2.70753        1.97154       -0.06819
H          6.43095        0.02627       -0.06183
H          2.65587       -2.22918       -0.06402
16 16 16 16 16 16 16 16 16 16 16 16 16 16 16 16 16 16 16 16 16 16 16 16 16 16 16 16 16 16 16 16 16 16 16 16 16 16 16 16 16 16 16
C(=O)([O-])C1(NC(C(=O)[O-])=CC(=O)C=1)
InChI=1S/C7H5NO5/c9-3-1-4(6(10)11)8-5(2-3)7(12)13/h1-2H,(H,8,9)(H,10,11)(H,12,13)/p-2
