23
metacyc CPD0-1107  -246.00480704 -246.00480704 -246.00480704 -246.00480704 -246.00480704 -246.00480704 -246.00480704 -246.00480704 -246.00480704 -246.00480704 -246.00480704 -246.00480704 -246.00480704 -246.00480704 -246.00480704
C          1.03335        0.04172        0.20635
C          2.54484       -0.03667        0.00655
O          2.96089       -1.35974       -0.35405
C          2.59337       -1.77552       -1.66859
C          3.10771       -0.81377       -2.75815
C          2.67732        0.62191       -2.42866
C          3.09780        0.99016       -0.99664
O          4.54400        0.96763       -0.95136
O          3.26483        1.54237       -3.35365
O          4.54980       -0.91571       -2.83249
O          3.14587       -3.06754       -1.88811
H          0.70864       -0.72549        0.91746
H          0.47681       -0.13516       -0.71785
H          0.74273        1.02276        0.59464
H          3.01055        0.15353        0.98064
H          1.50440       -1.87537       -1.72033
H          2.74390       -1.11737       -3.74492
H          1.59099        0.71334       -2.53540
H          2.78736        2.01113       -0.74986
H          4.80940        0.97180       -0.01221
H          4.23210        1.43781       -3.24720
H          4.89845       -0.43958       -2.04700
H          4.04894       -2.89559       -2.21248
23 23 23 23 23 23 23 23 23 23 23 23 23 23 23 23 23 23 23 23 23 23 23 23 23 23 23 23 23 23 23 23 23 23 23 23 23 23 23 23 23 23 23 23 23 23 23 23 23 23 23 23 23 23 23 23 23 23 23 23 23 23 23 23
CC1(OC(C(C(C1O)O)O)O)
InChI=1S/C6H12O5/c1-2-3(7)4(8)5(9)6(10)11-2/h2-10H,1H3/t2-,3+,4+,5-,6-/m0/s1
