25
metacyc CPD0-2190  -258.10043724 -258.10043724 -258.10043724 -258.10043724 -258.10043724 -258.10043724 -258.10043724 -258.10043724 -258.10043724 -258.10043724 -258.10043724 -258.10043724 -258.10043724 -258.10043724 -258.10043724
C          1.24664        0.78490        0.50357
C          2.62441        0.18483        0.25441
N          3.61809        1.26012        0.29865
C          2.99186       -0.87484        1.29829
O          2.22919       -1.18623        2.21053
N          4.20821       -1.46796        1.06617
C          4.84517       -2.49819        1.92993
C          4.42105       -3.89466        1.43644
C          4.91979       -5.03863        2.32267
C          4.48471       -6.45516        1.92203
O          3.71814       -6.56726        0.92314
O          4.93481       -7.37584        2.66936
C          6.40304       -2.26357        1.94760
O          7.01246       -2.55403        0.87287
O          6.84813       -1.64872        2.96313
H          1.01725        1.56969       -0.22592
H          1.16969        1.22152        1.50613
H          0.47115        0.01530        0.42059
H          2.64254       -0.28451       -0.73575
H          4.84495       -1.07866        0.37971
H          4.46007       -2.35111        2.94679
H          4.76412       -4.05133        0.40561
H          3.32366       -3.93638        1.39449
H          4.57370       -4.87319        3.35037
H          6.01588       -5.03028        2.34571
25 25 25 25 25 25 25 25 25 25 25 25 25 25 25 25 25 25 25 25 25 25 25 25 25 25 25 25 25 25 25 25 25 25 25 25 25 25 25 25 25 25 25 25 25 25 25 25 25 25 25 25 25 25 25 25 25 25 25 25 25 25 25 25 25 25 25 25 25 25
CC([N+])C(=O)NC(CCC(=O)[O-])C(=O)[O-]
InChI=1S/C8H14N2O5/c1-4(9)7(13)10-5(8(14)15)2-3-6(11)12/h4-5H,2-3,9H2,1H3,(H,10,13)(H,11,12)(H,14,15)/p-1/t4-,5+/m0/s1
