17
metacyc CPD0-1914  -124.4689792 -124.4689792 -124.4689792 -124.4689792 -124.4689792 -124.4689792 -124.4689792 -124.4689792 -124.4689792 -124.4689792 -124.4689792 -124.4689792 -124.4689792 -124.4689792 -124.4689792
C          1.18385       -0.08055        0.05512
N          2.63210       -0.18513       -0.03121
C          3.19138       -1.17433       -0.84754
O          2.49741       -1.96137       -1.49699
C          4.72130       -1.21989       -0.88514
N          5.18051       -2.29077       -1.76870
C          3.46768        0.76701        0.75427
C          2.90312        1.88042        1.67290
O          1.65366        2.00231        1.77348
O          3.81085        2.56508        2.23779
H          0.68426       -0.83086       -0.56404
H          0.87196        0.90364       -0.30440
H          0.87205       -0.24675        1.08967
H          5.10846       -1.40963        0.11915
H          5.10848       -0.26992       -1.26217
H          4.11472        1.27362        0.02771
H          4.11474        0.14996        1.38963
17 17 17 17 17 17 17 17 17 17 17 17 17 17 17 17 17 17 17 17 17 17 17 17 17 17 17 17 17 17 17 17 17 17 17 17 17 17 17 17 17 17 17 17 17 17
CN(C(=O)C[N+])CC(=O)[O-]
InChI=1S/C5H10N2O3/c1-7(3-5(9)10)4(8)2-6/h2-3,6H2,1H3,(H,9,10)
