25
metacyc CPD0-1445  -258.10043724 -258.10043724 -258.10043724 -258.10043724 -258.10043724 -258.10043724 -258.10043724 -258.10043724 -258.10043724 -258.10043724 -258.10043724 -258.10043724 -258.10043724 -258.10043724 -258.10043724
C          3.97601       -0.59154        1.54374
C          2.92175       -0.51092        0.44775
N          2.83407        0.85523       -0.06864
C          3.25557       -1.47148       -0.69030
O          2.59450       -2.49928       -0.84819
N          4.40167       -1.15531       -1.38056
C          4.92189       -1.94276       -2.52075
C          4.44033       -1.35032       -3.89844
O          3.41087       -1.89346       -4.40231
O          5.07888       -0.34156       -4.32433
C          6.46319       -1.99676       -2.43037
C          6.95940       -2.68357       -1.14948
C          8.47356       -2.79229       -0.93927
O          9.22212       -2.36116       -1.85743
O          8.80783       -3.31553        0.16819
H          3.73897        0.08447        2.37185
H          4.97532       -0.33500        1.17353
H          4.03200       -1.60989        1.94485
H          1.94393       -0.79052        0.85488
H          4.69510       -0.18560       -1.39276
H          4.52591       -2.96293       -2.44011
H          6.87866       -0.98123       -2.46936
H          6.86000       -2.52845       -3.30375
H          6.55238       -3.70188       -1.10940
H          6.56837       -2.14796       -0.27558
25 25 25 25 25 25 25 25 25 25 25 25 25 25 25 25 25 25 25 25 25 25 25 25 25 25 25 25 25 25 25 25 25 25 25 25 25 25 25 25 25 25 25 25 25 25 25 25 25 25 25 25 25 25 25 25 25 25 25 25 25 25 25 25 25 25 25 25 25 25
CC([N+])C(=O)NC(C([O-])=O)CCC(=O)[O-]
InChI=1S/C8H14N2O5/c1-4(9)7(13)10-5(8(14)15)2-3-6(11)12/h4-5H,2-3,9H2,1H3,(H,10,13)(H,11,12)(H,14,15)/p-1/t4-,5-/m0/s1
