18
metacyc CPD0-2059  -427.03276352 -427.03276352 -427.03276352 -427.03276352 -427.03276352 -427.03276352 -427.03276352 -427.03276352 -427.03276352 -427.03276352 -427.03276352 -427.03276352 -427.03276352 -427.03276352 -427.03276352
C          1.04041        0.04202        0.00166
O          0.45478        1.11236       -0.05183
O          0.39096       -1.14035       -0.02735
C          2.52419       -0.04812        0.10311
C          3.25191        1.15760        0.13623
C          4.65078        1.15851        0.22693
C          5.32603       -0.05364        0.28150
O          6.68681       -0.12533        0.36919
C          4.61584       -1.24850        0.24848
O          5.27388       -2.44923        0.29668
C          3.22675       -1.25334        0.16369
O          2.58354       -2.46606        0.14310
H          1.00251       -1.90991        0.02553
H          2.72287        2.11006        0.09058
H          5.18008        2.10637        0.25033
H          7.04157        0.78110        0.40156
H          6.22278       -2.20474        0.33717
H          3.31031       -3.12744        0.20591
18 18 18 18 18 18 18 18 18 18 18 18 18 18 18 18 18 18 18 18 18 18 18 18 18 18 18 18 18 18 18 18 18 18 18 18 18 18 18 18 18 18 18 18 18 18 18 18 18
C(=O)(O)C1(C=CC(O)=C(O)C(O)=1)
InChI=1S/C7H6O5/c8-4-2-1-3(7(11)12)5(9)6(4)10/h1-2,8-10H,(H,11,12)
