17
metacyc CPD0-1379  -80.62528252 -80.62528252 -80.62528252 -80.62528252 -80.62528252 -80.62528252 -80.62528252 -80.62528252 -80.62528252 -80.62528252 -80.62528252 -80.62528252 -80.62528252 -80.62528252 -80.62528252
C          1.02498        0.54981       -0.04934
O          2.45313        0.55298        0.00126
C          2.96073        0.24739        1.23333
O          2.27644       -0.00751        2.21699
C          4.48853        0.19918        1.20536
N          5.07150        1.13667        0.20199
C          5.04299        0.50143        2.60942
O          6.47145        0.47837        2.65152
H          0.72514        0.76199       -1.07863
H          0.61755        1.33181        0.59927
H          0.63147       -0.43202        0.23283
H          4.78963       -0.81070        0.90367
H          4.92590        2.09600        0.52250
H          4.51743        1.05398       -0.65499
H          4.68678       -0.24424        3.32754
H          4.71085        1.48457        2.96270
H          6.78408        0.14022        1.79257
17 17 17 17 17 17 17 17 17 17 17 17 17 17 17 17 17 17 17 17 17 17 17 17 17 17 17 17 17 17 17 17 17 17 17 17 17 17 17 17 17 17 17 17 17 17
COC(=O)C(N)CO
InChI=1S/C4H9NO3/c1-8-4(7)3(5)2-6/h3,6H,2,5H2,1H3
