28
metacyc CPD0-1311  -366.96893312 -366.96893312 -366.96893312 -366.96893312 -366.96893312 -366.96893312 -366.96893312 -366.96893312 -366.96893312 -366.96893312 -366.96893312 -366.96893312 -366.96893312 -366.96893312 -366.96893312
C         -0.87974        0.99874       -0.06962
N         -0.21852        0.71150       -1.14137
C          0.59120       -0.40801       -1.13422
O          1.25591       -0.69099       -2.12688
N          0.65553       -1.18081        0.03917
C          1.51211       -2.35684        0.00216
O          2.04462       -2.64643        1.31194
C          2.51513       -4.00196        1.24362
C          3.97057       -4.03643        0.76035
O          4.43629       -5.38341        0.71225
C          1.53103       -4.75073        0.32994
O          2.10635       -5.69835       -0.57143
C          0.81100       -3.64707       -0.45319
O          0.90415       -3.85725       -1.86023
C         -0.08238       -0.85616        1.16417
C         -0.85553        0.22362        1.16576
F         -1.58918        0.64240        2.20726
H         -1.51987        1.89699       -0.06058
H          2.36448       -2.14184       -0.65241
H          2.47535       -4.43275        2.25120
H          4.61977       -3.44537        1.41527
H          4.06484       -3.60897       -0.24363
H          4.74268       -5.61731        1.60774
H          0.80213       -5.28421        0.95212
H          2.98266       -5.97244       -0.22089
H         -0.25097       -3.63547       -0.18231
H          1.48825       -4.63732       -1.97651
H          0.00387       -1.48898        2.03992
28 28 28 28 28 28 28 28 28 28 28 28 28 28 28 28 28 28 28 28 28 28 28 28 28 28 28 28 28 28 28 28 28 28 28 28 28 28 28 28 28 28 28 28 28 28 28 28 28 28 28 28 28 28 28 28 28 28 28 28 28 28 28 28 28 28 28 28 28 28 28 28 28 28 28 28 28 28 28
C2(=NC(=O)N(C1(OC(CO)C(O)C(O)1))C=C(F)2)
InChI=1S/C9H11FN2O5/c10-4-1-11-9(16)12(2-4)8-7(15)6(14)5(3-13)17-8/h1-2,5-8,13-15H,3H2/t5-,6-,7-,8-/m1/s1
