23
metacyc CPD0-2049  -242.40658796 -242.40658796 -242.40658796 -242.40658796 -242.40658796 -242.40658796 -242.40658796 -242.40658796 -242.40658796 -242.40658796 -242.40658796 -242.40658796 -242.40658796 -242.40658796 -242.40658796
C          0.89751       -0.03486       -0.07313
C          2.42467       -0.02829       -0.03681
O          2.93532       -0.20734       -1.35780
C          2.97942        1.27597        0.56712
O          2.49620        1.49472        1.90314
C          4.51804        1.37049        0.56143
O          4.89501        2.67078        1.03189
C          5.18011        0.35303        1.48736
O          4.53357       -0.38361        2.24229
C          6.70326        0.34516        1.50439
O          7.21512       -0.75864        2.23872
H          0.53249       -0.96305       -0.52644
H          0.51530        0.78714       -0.68736
H          0.47074        0.05111        0.93019
H          2.74281       -0.89066        0.55573
H          2.38070        0.30515       -1.97345
H          2.60574        2.12184       -0.02451
H          2.76425        0.71040        2.42920
H          4.91653        1.24042       -0.44867
H          4.27427        2.88304        1.76056
H          7.05666        1.26742        1.97556
H          7.08275        0.28174        0.48227
H          6.53764       -0.98385        2.90682
23 23 23 23 23 23 23 23 23 23 23 23 23 23 23 23 23 23 23 23 23 23 23 23 23 23 23 23 23 23 23 23 23 23 23 23 23 23 23 23 23 23 23 23 23 23 23 23 23 23 23 23 23 23 23 23 23 23 23 23 23 23 23 23
CC(O)C(O)C(O)C(=O)CO
InChI=1S/C6H12O5/c1-3(8)5(10)6(11)4(9)2-7/h3,5-8,10-11H,2H2,1H3/t3-,5+,6+/m1/s1
