19
metacyc CPD0-2167  -169.865349912 -169.865349912 -169.865349912 -169.865349912 -169.865349912 -169.865349912 -169.865349912 -169.865349912 -169.865349912 -169.865349912 -169.865349912 -169.865349912 -169.865349912 -169.865349912 -169.865349912
C          0.88904        0.16027       -0.07058
C          2.41220        0.08715       -0.03520
O          2.93017        0.34618       -1.34079
C          3.02840        1.07127        0.98052
O          2.57384        0.80570        2.31599
C          4.56952        1.07939        0.94400
O          5.07204        2.02060        1.89900
C          5.15859       -0.27623        1.28556
O          4.57616       -1.11475        1.97342
H          0.49471       -0.54003       -0.81506
H          0.54862        1.15858       -0.36629
H          0.45139       -0.08601        0.90173
H          2.68123       -0.94186        0.22375
H          2.46852        1.12511       -1.70064
H          2.69187        2.08906        0.74410
H          2.88155       -0.09789        2.54688
H          4.93472        1.37115       -0.04497
H          4.53435        1.88834        2.70714
H          6.18597       -0.44986        0.92570
19 19 19 19 19 19 19 19 19 19 19 19 19 19 19 19 19 19 19 19 19 19 19 19 19 19 19 19 19 19 19 19 19 19 19 19 19 19 19 19 19 19 19 19 19 19 19 19 19 19 19 19
CC(O)C(O)C(O)C=O
InChI=1S/C5H10O4/c1-3(7)5(9)4(8)2-6/h2-5,7-9H,1H3/t3-,4+,5-/m1/s1
