24
metacyc CPD0-2485  -396.58696704 -396.58696704 -396.58696704 -396.58696704 -396.58696704 -396.58696704 -396.58696704 -396.58696704 -396.58696704 -396.58696704 -396.58696704 -396.58696704 -396.58696704 -396.58696704 -396.58696704
C          1.04344        0.27597       -0.14852
O          0.87420        0.59277       -1.52387
C          2.50551       -0.06213        0.17473
O          2.62655       -0.40656        1.56106
C          3.05289       -1.19090       -0.70873
H          2.97247       -0.88459       -1.75850
C          4.49947       -1.63044       -0.42888
O          4.80804       -1.77133        0.95860
C          4.50711       -3.01524       -1.05604
O          4.65305       -2.97660       -2.48836
C          3.10793       -3.52165       -0.66545
O          2.24071       -2.37735       -0.57814
O          2.59878       -4.43933       -1.61733
H          0.36905       -0.54517        0.12145
H          0.72714        1.14069        0.44467
H          0.56975       -0.22103       -1.96631
H          3.12313        0.82830        0.00737
H          1.95893       -1.10083        1.73827
H          5.21940       -0.94141       -0.87942
H          4.27462       -1.11797        1.46180
H          5.28529       -3.67805       -0.66645
H          4.09025       -2.27491       -2.85608
H          3.11998       -3.99602        0.32004
H          3.16667       -4.34374       -2.40662
24 24 24 24 24 24 24 24 24 24 24 24 24 24 24 24 24 24 24 24 24 24 24 24 24 24 24 24 24 24 24 24 24 24 24 24 24 24 24 24 24 24 24 24 24 24 24 24 24 24 24 24 24 24 24 24 24 24 24 24 24 24 24 24 24 24 24
C(O)C(O)[CH]1(C(O)C(O)C(O1)O)
InChI=1S/C6H12O6/c7-1-2(8)5-3(9)4(10)6(11)12-5/h2-11H,1H2/t2-,3-,4-,5+,6-/m1/s1
