14
metacyc CPD0-2088  -131.074561248 -131.074561248 -131.074561248 -131.074561248 -131.074561248 -131.074561248 -131.074561248 -131.074561248 -131.074561248 -131.074561248 -131.074561248 -131.074561248 -131.074561248 -131.074561248 -131.074561248
C          0.97546        0.10150        0.03294
O          0.48542       -0.87416        0.68984
O          0.29933        0.95495       -0.61776
C          2.46356        0.12339       -0.07083
N          3.20028        1.29390       -0.08070
O          2.73651        2.46876        0.08124
C          4.59185        1.19637       -0.22037
C          5.26838       -0.01634       -0.31758
C          4.53686       -1.18616       -0.27155
C          3.15427       -1.11639       -0.15649
H          5.07326        2.16356       -0.22606
H          6.34927       -0.03565       -0.41224
H          5.02810       -2.15332       -0.32694
H          2.56556       -2.03543       -0.11769
14 14 14 14 14 14 14 14 14 14 14 14 14 14 14 14 14 14 14 14 14 14 14 14 14 14 14 14 14 14 14 14 14 14 14 14 14
C(=O)([O-])C1(=[N+]([O-])C=CC=C1)
InChI=1S/C6H5NO3/c8-6(9)5-3-1-2-4-7(5)10/h1-4H,(H,8,9)/p-1
