14
metacyc CPD0-2331  -219.51966864 -219.51966864 -219.51966864 -219.51966864 -219.51966864 -219.51966864 -219.51966864 -219.51966864 -219.51966864 -219.51966864 -219.51966864 -219.51966864 -219.51966864 -219.51966864 -219.51966864
C          1.01067        0.02644       -0.08212
H          0.50880        0.90151        0.31801
N          0.24676       -1.01020       -0.55508
C         -1.10663       -1.13606       -0.61122
N         -1.85696       -0.11642       -0.14252
O         -1.64462       -2.14077       -1.07061
C          2.34687       -0.01081       -0.10020
C          3.16723        1.16264        0.43501
O          2.51451        2.14609        0.88293
O          4.41572        0.98708        0.35545
H          0.73946       -1.81408       -0.92315
H         -1.45293        0.72520        0.23445
H         -2.85912       -0.20597       -0.18605
H          2.89997       -0.85834       -0.48754
14 14 14 14 14 14 14 14 14 14 14 14 14 14 14 14 14 14 14 14 14 14 14 14 14 14 14 14 14 14 14 14 14 14 14 14 14
[CH](NC(N)=O)=CC(=O)[O-]
InChI=1S/C4H6N2O3/c5-4(9)6-2-1-3(7)8/h1-2H,(H,7,8)(H3,5,6,9)/p-1/b2-1-
