27
metacyc CPD0-1937  -240.639885592 -240.639885592 -240.639885592 -240.639885592 -240.639885592 -240.639885592 -240.639885592 -240.639885592 -240.639885592 -240.639885592 -240.639885592 -240.639885592 -240.639885592 -240.639885592 -240.639885592
C          0.98050        0.14882       -0.44849
O          2.34828       -0.19833       -0.30440
C          2.71620       -0.80367        0.96134
C          2.22876       -2.28538        1.04872
O          0.79142       -2.34216        1.02701
C          2.82596       -3.21418       -0.03289
O          4.24120       -3.33314        0.15192
C          2.23620       -4.63239        0.02428
O          2.59890       -5.23798        1.26767
H          1.77028       -5.41179        1.75241
C          4.25391       -0.62265        1.07326
O          4.60955        0.76677        1.17659
C          4.88736       -1.29759        2.27445
H          5.98453       -1.41000        2.21809
O          4.27720       -1.64807        3.28075
H          0.91715        1.10679       -0.97311
H          0.45644        0.23724        0.50687
H          0.49516       -0.59951       -1.08052
H          2.23338       -0.21543        1.75771
H          2.50871       -2.67296        2.03122
H          0.50359       -2.29945        0.10033
H          2.63614       -2.79905       -1.03076
H          4.34773       -4.03917        0.82542
H          2.67761       -5.25207       -0.76312
H          1.14961       -4.64231       -0.09313
H          4.75114       -0.98190        0.16816
H          4.05200        1.16320        1.87442
27 27 27 27 27 27 27 27 27 27 27 27 27 27 27 27 27 27 27 27 27 27 27 27 27 27 27 27 27 27 27 27 27 27 27 27 27 27 27 27 27 27 27 27 27 27 27 27 27 27 27 27 27 27 27 27 27 27 27 27 27 27 27 27 27 27 27 27 27 27 27 27 27 27 27 27
COC(C(O)C(O)C[OH])C(O)[CH]=O
InChI=1S/C7H14O6/c1-13-7(5(11)3-9)6(12)4(10)2-8/h3-8,10-12H,2H2,1H3
