11
metacyc CPD0-2357  -32.1143656384 -32.1143656384 -32.1143656384 -32.1143656384 -32.1143656384 -32.1143656384 -32.1143656384 -32.1143656384 -32.1143656384 -32.1143656384 -32.1143656384 -32.1143656384 -32.1143656384 -32.1143656384 -32.1143656384
C          1.03017        0.20453        0.02395
H          0.68082        1.25111        0.02225
O          0.21547       -0.71540        0.02931
C          2.45833        0.04236        0.01947
O          3.24176        1.16247        0.01363
C          4.53428        0.74441        0.01033
C          4.59696       -0.62912        0.01395
C          3.25652       -1.08428        0.01986
H          5.27957        1.52812        0.00556
H          5.49745       -1.22745        0.01251
H          2.90214       -2.10658        0.02395
11 11 11 11 11 11 11 11 11 11 11 11 11 11 11 11 11 11 11 11 11 11 11 11 11 11 11 11
[CH](=O)C1(OC=CC=1)
InChI=1S/C5H4O2/c6-4-5-2-1-3-7-5/h1-4H
