27
metacyc CPD0-1647  -280.92719064 -280.92719064 -280.92719064 -280.92719064 -280.92719064 -280.92719064 -280.92719064 -280.92719064 -280.92719064 -280.92719064 -280.92719064 -280.92719064 -280.92719064 -280.92719064 -280.92719064
C          3.53079       -0.42185        0.98843
N          4.77756        0.34182        0.91327
C          2.48883        0.08786       -0.02383
O          2.22508        1.48131        0.20669
C          2.92064       -0.15200       -1.48808
H          3.91813        0.28196       -1.62359
O          3.06598       -1.54236       -1.79533
C          1.82224       -2.28258       -1.88135
C          2.10487       -3.76164       -2.27553
O          2.62847       -3.94610       -3.41108
O          1.74794       -4.61063       -1.40492
C          0.88809       -1.68548       -2.92952
C          0.67785       -0.19950       -2.66900
O         -0.05231        0.37267       -3.76048
C          2.02017        0.52512       -2.53150
O          2.68320        0.48301       -3.81874
H          3.13866       -0.30023        2.00409
H          3.74143       -1.48430        0.83506
H          1.55112       -0.43270        0.18835
H          3.06496        1.95295        0.05334
H          1.34121       -2.27878       -0.89676
H         -0.07693       -2.20755       -2.93709
H          1.29397       -1.81684       -3.94104
H          0.07683       -0.06241       -1.76364
H          0.61234        0.48037       -4.47137
H          1.86237        1.58659       -2.31692
H          3.07082       -0.41860       -3.88308
27 27 27 27 27 27 27 27 27 27 27 27 27 27 27 27 27 27 27 27 27 27 27 27 27 27 27 27 27 27 27 27 27 27 27 27 27 27 27 27 27 27 27 27 27 27 27 27 27 27 27 27 27 27 27 27 27 27 27 27 27 27 27 27 27 27 27 27 27 27 27 27 27 27 27 27
C([N+])C(O)[CH]1(OC(C([O-])=O)CC(O)C(O)1)
InChI=1S/C8H15NO6/c9-2-4(11)7-6(12)3(10)1-5(15-7)8(13)14/h3-7,10-12H,1-2,9H2,(H,13,14)/t3-,4-,5+,6-,7-/m1/s1
