16
metacyc CPD0-1267  -401.01029184 -401.01029184 -401.01029184 -401.01029184 -401.01029184 -401.01029184 -401.01029184 -401.01029184 -401.01029184 -401.01029184 -401.01029184 -401.01029184 -401.01029184 -401.01029184 -401.01029184
C          1.02988        0.10913        0.13844
O          0.37105       -0.97890        0.17269
O          0.50770        1.27347        0.20631
C          2.54450        0.03664        0.00849
C          3.30133        1.22112       -0.01915
C          4.69014        1.18854       -0.13959
C          5.35096       -0.03562       -0.23642
C          4.64237       -1.24970       -0.21392
C          5.39555       -2.56757       -0.32441
O          4.72980       -3.65141       -0.28995
O          6.66585       -2.50239       -0.44630
C          3.23528       -1.19305       -0.08926
H          2.78753        2.17719        0.05473
H          5.25507        2.11328       -0.15914
H          6.43438       -0.05887       -0.33173
H          2.66681       -2.12366       -0.06906
16 16 16 16 16 16 16 16 16 16 16 16 16 16 16 16 16 16 16 16 16 16 16 16 16 16 16 16 16 16 16 16 16 16 16 16 16 16 16 16 16 16 16
C(=O)([O-])C1(C=CC=C(C(=O)[O-])C=1)
InChI=1S/C8H6O4/c9-7(10)5-2-1-3-6(4-5)8(11)12/h1-4H,(H,9,10)(H,11,12)/p-2
