22
metacyc CPD0-1090  -966.33366936 -966.33366936 -966.33366936 -966.33366936 -966.33366936 -966.33366936 -966.33366936 -966.33366936 -966.33366936 -966.33366936 -966.33366936 -966.33366936 -966.33366936 -966.33366936 -966.33366936
C          1.30430        2.37919        0.80359
C          0.27709        1.30286        0.36388
C         -0.68491        0.99826        1.51971
C         -1.57148        2.16715        2.03022
C         -2.61183        2.77572        1.07008
C         -3.70151        1.74614        0.65666
O         -4.76889        1.84425        1.34506
O         -3.41851        0.92698       -0.25914
O         -3.28523        3.88454        1.75393
O         -2.22832        1.73820        3.25851
O         -1.48693       -0.15404        1.17441
O         -0.41371        1.75851       -0.82265
O          2.27809        1.98417        1.50191
O          1.05968        3.53698        0.33717
H          0.80990        0.39134        0.07073
H         -0.08577        0.65740        2.37589
H         -0.91090        2.97758        2.36054
H         -2.14431        3.20993        0.18510
H         -4.13197        3.45481        2.02327
H         -2.98654        1.19555        2.96469
H         -2.00998        0.11135        0.37377
H         -0.21201        2.72411       -0.82542
22 22 22 22 22 22 22 22 22 22 22 22 22 22 22 22 22 22 22 22 22 22 22 22 22 22 22 22 22 22 22 22 22 22 22 22 22 22 22 22 22 22 22 22 22 22 22 22 22 22 22 22 22 22 22 22 22 22 22 22 22
C(C(C(C(C(C([O-])=O)O)O)O)O)([O-])=O
InChI=1S/C6H10O8/c7-1(3(9)5(11)12)2(8)4(10)6(13)14/h1-4,7-10H,(H,11,12)(H,13,14)/p-2/t1-,2-,3+,4+/m0/s1
