22
metacyc CPD0-1092  -966.33366936 -966.33366936 -966.33366936 -966.33366936 -966.33366936 -966.33366936 -966.33366936 -966.33366936 -966.33366936 -966.33366936 -966.33366936 -966.33366936 -966.33366936 -966.33366936 -966.33366936
C          0.88018        0.04857        0.12075
O          0.30796        0.86302       -0.66929
O          0.38495       -0.71277        1.00278
C          2.42719       -0.00992       -0.03161
O          2.81256        0.79348       -1.17896
C          3.01908        0.55244        1.26546
O          2.67635       -0.23902        2.43026
C          4.56879        0.72563        1.26819
O          4.86388        1.41704        2.50881
C          5.33676       -0.60849        1.21643
O          5.06352       -1.30194       -0.03042
C          6.87442       -0.35363        1.26372
O          7.35310        0.18141        0.21295
O          7.48965       -0.81969        2.26877
H          2.69573       -1.05432       -0.21189
H          1.94411        1.17147       -1.45631
H          2.58540        1.54593        1.44620
H          1.81093       -0.66140        2.21137
H          4.86445        1.38790        0.44638
H          4.43071        0.85735        3.18311
H          5.05150       -1.26671        2.03982
H          5.61232       -0.80214       -0.67391
22 22 22 22 22 22 22 22 22 22 22 22 22 22 22 22 22 22 22 22 22 22 22 22 22 22 22 22 22 22 22 22 22 22 22 22 22 22 22 22 22 22 22 22 22 22 22 22 22 22 22 22 22 22 22 22 22 22 22 22 22
C(=O)([O-])C(O)C(O)C(O)C(O)C(=O)[O-]
InChI=1S/C6H10O8/c7-1(3(9)5(11)12)2(8)4(10)6(13)14/h1-4,7-10H,(H,11,12)(H,13,14)/p-2/t1-,2-,3+,4+/m1/s1
