13
metacyc CPD0-2462  -163.687092336 -163.687092336 -163.687092336 -163.687092336 -163.687092336 -163.687092336 -163.687092336 -163.687092336 -163.687092336 -163.687092336 -163.687092336 -163.687092336 -163.687092336 -163.687092336 -163.687092336
C         -1.17550       -0.04049       -0.10798
O         -0.29514       -1.17880       -0.07367
C          0.98697       -0.61266       -0.11001
C          2.24585       -1.52206       -0.27548
O          2.02274       -2.76312       -0.35381
O          3.34948       -0.89994       -0.33079
C          1.01522        0.71464        0.02116
C         -0.35937        1.23294        0.13232
N         -0.63402        1.83691        1.43031
H         -1.97562       -0.18811        0.62651
H         -1.64460       -0.01343       -1.09971
H          1.92075        1.30321        0.02744
H         -0.57388        1.97230       -0.64583
13 13 13 13 13 13 13 13 13 13 13 13 13 13 13 13 13 13 13 13 13 13 13 13 13 13 13 13 13 13 13 13 13 13
C1(OC(C(=O)[O-])=CC([N+])1)
InChI=1S/C5H7NO3/c6-3-1-4(5(7)8)9-2-3/h1,3H,2,6H2,(H,7,8)/t3-/m1/s1
