24
metacyc CPD0-1264  -144.24250044 -144.24250044 -144.24250044 -144.24250044 -144.24250044 -144.24250044 -144.24250044 -144.24250044 -144.24250044 -144.24250044 -144.24250044 -144.24250044 -144.24250044 -144.24250044 -144.24250044
C          0.88741        2.40499        0.86029
O          0.25791        1.31643        0.97492
O          0.42571        3.56994        0.67534
C          2.41641        2.33973        0.93806
C          3.03096        0.95199        1.10669
C          4.56549        0.96888        1.13048
C          5.20191        1.74977        2.28630
C          4.82567        1.26796        3.69259
C          5.25123       -0.16553        4.00105
C          6.76043       -0.42744        4.03226
O          7.48746        0.52121        4.44014
O          7.10534       -1.59429        3.67892
H          2.71473        2.98257        1.77442
H          2.80979        2.79515        0.02092
H          2.71097        0.31654        0.27138
H          2.64480        0.47404        2.01385
H          4.92882        1.39509        0.18698
H          4.92897       -0.06647        1.14795
H          4.93662        2.81023        2.19805
H          6.29198        1.71019        2.17064
H          3.74234        1.35772        3.83431
H          5.27840        1.94983        4.42389
H          4.77195       -0.85875        3.30064
H          4.87394       -0.42968        4.99743
24 24 24 24 24 24 24 24 24 24 24 24 24 24 24 24 24 24 24 24 24 24 24 24 24 24 24 24 24 24 24 24 24 24 24 24 24 24 24 24 24 24 24 24 24 24 24 24 24 24 24 24 24 24 24 24 24 24 24 24 24 24 24 24 24 24 24
C([O-])(=O)CCCCCCC(=O)[O-]
InChI=1S/C8H14O4/c9-7(10)5-3-1-2-4-6-8(11)12/h1-6H2,(H,9,10)(H,11,12)/p-2
