16
metacyc CPD0-1487  -162.86830864 -162.86830864 -162.86830864 -162.86830864 -162.86830864 -162.86830864 -162.86830864 -162.86830864 -162.86830864 -162.86830864 -162.86830864 -162.86830864 -162.86830864 -162.86830864 -162.86830864
C          1.02865        0.07380        0.00347
O          0.41763       -1.01787       -0.25071
O          0.47489        1.18181        0.29008
C          2.54356        0.05109       -0.07191
C          3.24369        1.27192       -0.13351
C          4.62826        1.28905       -0.24224
F          5.27750        2.46048       -0.30375
C          5.35455        0.10768       -0.28401
C          4.68168       -1.11110       -0.21695
C          3.28092       -1.15272       -0.13655
N          2.66030       -2.40790        0.05063
H          2.69517        2.21018       -0.09913
H          6.43515        0.14161       -0.35167
H          5.24844       -2.03716       -0.21066
H          2.99954       -3.11094       -0.59076
H          1.63456       -2.26665       -0.07250
16 16 16 16 16 16 16 16 16 16 16 16 16 16 16 16 16 16 16 16 16 16 16 16 16 16 16 16 16 16 16 16 16 16 16 16 16 16 16 16 16 16 16
C(=O)([O-])C1(=CC(F)=CC=C(N)1)
InChI=1S/C7H6FNO2/c8-4-1-2-6(9)5(3-4)7(10)11/h1-3H,9H2,(H,10,11)/p-1
