21
metacyc CPD0-1613  -770.7057704 -770.7057704 -770.7057704 -770.7057704 -770.7057704 -770.7057704 -770.7057704 -770.7057704 -770.7057704 -770.7057704 -770.7057704 -770.7057704 -770.7057704 -770.7057704 -770.7057704
C          0.80368        0.05842       -0.00344
O          0.00876       -0.84674        0.23782
N          0.34632        1.34298       -0.24691
O         -1.06586        1.45129       -0.35142
C          2.34248       -0.07135        0.00420
O          2.71255       -1.38827        0.39457
C          2.92640        0.37418       -1.36440
O          2.60268        1.77541       -1.59357
C          4.44514        0.24027       -1.47129
O          5.07600        1.06958       -0.45596
C          4.95188       -1.21743       -1.36680
O          4.13896       -2.10396       -1.74992
O          6.10660       -1.31097       -0.85781
H          0.90613        1.93168       -0.87109
H         -1.34670        0.54073       -0.10730
H          2.69550        0.60550        0.79189
H          2.88287       -1.92446       -0.41678
H          2.44360       -0.19363       -2.16828
H          3.43913        2.25277       -1.40211
H          4.78960        0.64194       -2.43110
H          5.80429        0.47654       -0.13910
21 21 21 21 21 21 21 21 21 21 21 21 21 21 21 21 21 21 21 21 21 21 21 21 21 21 21 21 21 21 21 21 21 21 21 21 21 21 21 21 21 21 21 21 21 21 21 21 21 21 21 21 21 21 21 21 21 21
C(=O)(NO)C(O)C(O)C(O)C(=O)[O-]
InChI=1S/C5H9NO7/c7-1(3(9)5(11)12)2(8)4(10)6-13/h1-3,7-9,13H,(H,6,10)(H,11,12)/p-1/t1-,2-,3+/m0/s1
