10
metacyc CPD0-1335  -87.961416072 -87.961416072 -87.961416072 -87.961416072 -87.961416072 -87.961416072 -87.961416072 -87.961416072 -87.961416072 -87.961416072 -87.961416072 -87.961416072 -87.961416072 -87.961416072 -87.961416072
C          1.04902        0.01841        0.05668
O          0.48939       -0.74457       -0.78301
O          0.50605        0.85372        0.84059
C          2.58108        0.00566        0.09448
N          3.02381       -1.28660        0.62504
C          3.02277        0.20882       -1.33793
F          4.37912        0.38786       -1.37862
H          2.97292        0.80485        0.73133
H          2.57300        1.10939       -1.77079
H          2.78440       -0.63748       -1.99120
10 10 10 10 10 10 10 10 10 10 10 10 10 10 10 10 10 10 10 10 10 10 10 10 10
C([O-])(=O)C([N+])CF
InChI=1S/C3H6FNO2/c4-1-2(5)3(6)7/h2H,1,5H2,(H,6,7)/t2-/m0/s1
