20
metacyc CPD0-1237  -348.61908064 -348.61908064 -348.61908064 -348.61908064 -348.61908064 -348.61908064 -348.61908064 -348.61908064 -348.61908064 -348.61908064 -348.61908064 -348.61908064 -348.61908064 -348.61908064 -348.61908064
C          0.92946        0.16956       -0.16234
O          0.41393        1.29856        0.07361
O          0.36386       -0.92846       -0.43212
C          2.44850        0.09773       -0.12805
C          3.21242        1.16867        0.13929
C          4.69484        1.06798        0.12556
O          5.28905        0.03101       -0.14937
N          5.32250        2.24833        0.44787
C          6.77995        2.31906        0.57759
C          7.28720        3.72727        0.86733
N          6.79378        4.20253        2.16885
C          8.82853        3.77624        0.91897
O          9.42880        2.72371        1.28210
O          9.34039        4.88096        0.55706
H          2.89944       -0.86693       -0.34130
H          2.75795        2.12987        0.34804
H          4.77709        3.01500        0.81620
H          7.20523        1.95164       -0.36493
H          7.07171        1.60676        1.35893
H          6.93274        4.41651        0.09206
20 20 20 20 20 20 20 20 20 20 20 20 20 20 20 20 20 20 20 20 20 20 20 20 20 20 20 20 20 20 20 20 20 20 20 20 20 20 20 20 20 20 20 20 20 20 20 20 20 20 20 20 20 20 20
C([O-])(=O)C=CC(=O)NCC([N+])C([O-])=O
InChI=1S/C7H10N2O5/c8-4(7(13)14)3-9-5(10)1-2-6(11)12/h1-2,4H,3,8H2,(H,9,10)(H,11,12)(H,13,14)/p-1/b2-1+/t4-/m0/s1
