29
metacyc CPD0-2306  -40.30919992 -40.30919992 -40.30919992 -40.30919992 -40.30919992 -40.30919992 -40.30919992 -40.30919992 -40.30919992 -40.30919992 -40.30919992 -40.30919992 -40.30919992 -40.30919992 -40.30919992
C          0.91420        0.16643        0.13537
O          0.61877        1.48741       -0.32922
C          2.44112       -0.03820        0.17583
N          2.99703        0.21594       -1.19857
C          4.03156        1.27369       -1.19173
C          5.34594        0.59700       -0.82107
O          5.48182        0.38719        0.58942
C          5.23363       -0.76277       -1.50404
O          5.96261       -1.75537       -0.79135
C          3.71937       -1.03827       -1.61064
H          3.47404       -1.22874       -2.66276
C          3.15654       -2.15225       -0.72764
O          1.91078       -2.65801       -1.25047
C          2.87185       -1.45372        0.59640
O          1.89357       -2.15064        1.36007
H          0.41651       -0.54037       -0.53669
H          0.47470        0.05680        1.13148
H          1.15056        1.58719       -1.14145
H          2.83230        0.68825        0.90146
H          3.77573        2.10411       -0.52547
H          4.10356        1.67649       -2.20802
H          6.22352        1.15836       -1.16073
H          5.19103        1.19933        1.04448
H          5.64819       -0.69628       -2.51766
H          6.14434       -1.36641        0.09138
H          3.81639       -3.01414       -0.60519
H          1.53548       -1.96736       -1.82802
H          3.78796       -1.39799        1.19226
H          1.45616       -2.76441        0.73369
29 29 29 29 29 29 29 29 29 29 29 29 29 29 29 29 29 29 29 29 29 29 29 29 29 29 29 29 29 29 29 29 29 29 29 29 29 29 29 29 29 29 29 29 29 29 29 29 29 29 29 29 29 29 29 29 29 29 29 29 29 29 29 29 29 29 29 29 29 29 29 29 29 29 29 29 29 29 29 29 29 29
C(O)C2([N+]1(CC(O)C(O)[CH]1C(O)C(O)2))
InChI=1S/C8H15NO5/c10-2-3-6(12)8(14)5-7(13)4(11)1-9(3)5/h3-8,10-14H,1-2H2/p+1/t3-,4+,5-,6-,7-,8-/m1/s1
