21
metacyc CPD0-1200  -535.60204064 -535.60204064 -535.60204064 -535.60204064 -535.60204064 -535.60204064 -535.60204064 -535.60204064 -535.60204064 -535.60204064 -535.60204064 -535.60204064 -535.60204064 -535.60204064 -535.60204064
C          0.99465       -0.03962       -0.02287
O          0.45510       -0.78001       -1.12277
C          2.53425       -0.08482       -0.00697
O          3.03522        0.45929       -1.23279
C          3.10423        0.67300        1.21270
O          2.61685        0.10315        2.43272
C          4.63287        0.75420        1.23145
C          5.25569       -0.61953        1.27944
O          4.70474       -1.57380        1.83633
C          6.65398       -0.81801        0.68790
O          7.21561        0.23995        0.25850
O          7.12926       -1.99427        0.67547
H          0.57302       -0.45778        0.89538
H          0.64075        0.99021       -0.13576
H          1.06667       -1.51892       -1.29415
H          2.83804       -1.13645        0.01605
H          2.77061        1.39315       -1.28156
H          2.73074        1.70371        1.18311
H          3.13109       -0.72746        2.56266
H          4.97102        1.28789        2.12735
H          4.98157        1.29867        0.34932
21 21 21 21 21 21 21 21 21 21 21 21 21 21 21 21 21 21 21 21 21 21 21 21 21 21 21 21 21 21 21 21 21 21 21 21 21 21 21 21 21 21 21 21 21 21 21 21 21 21 21 21 21 21 21 21 21 21
C(O)C(O)C(O)CC(=O)C(=O)[O-]
InChI=1S/C6H10O6/c7-2-5(10)3(8)1-4(9)6(11)12/h3,5,7-8,10H,1-2H2,(H,11,12)/p-1/t3-,5+/m1/s1
