25
metacyc CPD0-1498  -5.8843135848 -5.8843135848 -5.8843135848 -5.8843135848 -5.8843135848 -5.8843135848 -5.8843135848 -5.8843135848 -5.8843135848 -5.8843135848 -5.8843135848 -5.8843135848 -5.8843135848 -5.8843135848 -5.8843135848
C          0.93485       -0.03959       -0.15986
C          0.43672        0.27158       -1.57925
C         -1.09858        0.34643       -1.62341
N         -1.58476        1.50028       -0.85027
C         -1.72449        0.46750       -3.03374
O         -1.01731        1.00960       -3.93039
O         -2.89001       -0.02941       -3.14885
C          2.45188       -0.24196       -0.04980
C          2.95168       -0.42845        1.40026
N          2.52520       -1.70698        2.06704
N          1.13499       -1.68560        2.49126
C          4.53584       -0.40120        1.52063
O          5.20137       -0.18953        0.46868
O          4.96277       -0.59467        2.70599
H          0.42263       -0.94998        0.15897
H          0.63656        0.76788        0.51892
H          0.77528       -0.51879       -2.26109
H          0.88338        1.20755       -1.93734
H         -1.50680       -0.56290       -1.16432
H          2.94561        0.63930       -0.48133
H          2.75781       -1.09797       -0.66335
H          2.61727        0.42541        2.00715
H          3.16317       -1.77315        2.88250
H          0.58270       -2.21759        1.81330
H          0.75088       -0.73800        2.46057
25 25 25 25 25 25 25 25 25 25 25 25 25 25 25 25 25 25 25 25 25 25 25 25 25 25 25 25 25 25 25 25 25 25 25 25 25 25 25 25 25 25 25 25 25 25 25 25 25 25 25 25 25 25 25 25 25 25 25 25 25 25 25 25 25 25 25 25 25 25
C(CC([N+])C(=O)[O-])CC(NN)C(=O)[O-]
InChI=1S/C7H15N3O4/c8-4(6(11)12)2-1-3-5(10-9)7(13)14/h4-5,10H,1-3,8-9H2,(H,11,12)(H,13,14)/p-1
