20
metacyc CPD0-1300  -105.9756992 -105.9756992 -105.9756992 -105.9756992 -105.9756992 -105.9756992 -105.9756992 -105.9756992 -105.9756992 -105.9756992 -105.9756992 -105.9756992 -105.9756992 -105.9756992 -105.9756992
C         -1.34942       -0.30358        0.04857
O         -1.01345        1.00722        0.03121
C          0.37332        1.38845       -0.03298
C          0.55620        2.20905       -1.31722
O         -0.28505        3.36657       -1.28511
C          1.44976        0.28203        0.11601
O          2.12464        0.43311        1.38825
C          0.95765       -1.17396       -0.01685
O          1.48280       -2.01312        1.01237
C         -0.50990       -1.33359        0.03138
H         -2.42692       -0.43123        0.08173
H          0.48456        2.09671        0.79854
H          0.28639        1.63200       -2.20606
H          1.58702        2.56291       -1.41637
H         -1.17256        3.05826       -1.02035
H          2.23866        0.43802       -0.62817
H          1.46346        0.70392        2.05145
H          1.30766       -1.58655       -0.97255
H          1.66930       -1.42829        1.77124
H         -0.89966       -2.34878        0.05407
20 20 20 20 20 20 20 20 20 20 20 20 20 20 20 20 20 20 20 20 20 20 20 20 20 20 20 20 20 20 20 20 20 20 20 20 20 20 20 20 20 20 20 20 20 20 20 20 20 20 20 20 20 20 20
C1(OC(CO)C(O)C(O)C=1)
InChI=1S/C6H10O4/c7-3-5-6(9)4(8)1-2-10-5/h1-2,4-9H,3H2/t4-,5-,6-/m1/s1
