29
metacyc CPD0-2530  -1085.45955504 -1085.45955504 -1085.45955504 -1085.45955504 -1085.45955504 -1085.45955504 -1085.45955504 -1085.45955504 -1085.45955504 -1085.45955504 -1085.45955504 -1085.45955504 -1085.45955504 -1085.45955504 -1085.45955504
C          0.87300        0.01435       -0.11626
O          0.37657        1.35020       -0.17343
N         -1.03281        1.41592       -0.29877
O         -1.64452        0.34821       -0.27809
O         -1.44470        2.56723       -0.40945
C          2.42833        0.02685       -0.05955
C          2.90931        0.86802        1.15413
O          2.38504        0.30742        2.35756
N          2.77203        1.02950        3.51643
O          3.50648        2.00227        3.34838
O          2.30770        0.55040        4.54725
C          2.94164       -1.43136        0.09577
O          2.52811       -2.21769       -1.02051
N          2.97667       -3.56231       -0.94066
O          3.65650       -3.86789        0.04039
O          2.61270       -4.24056       -1.89712
C          3.00953        0.63492       -1.36824
O          2.61219        1.99751       -1.50377
N          3.04032        2.58243       -2.72195
O          3.73891        1.88658       -3.45816
O          2.64123        3.73526       -2.86035
H          0.54475       -0.54257       -1.00347
H          0.47647       -0.48179        0.77904
H          2.57029        1.90656        1.05531
H          4.00685        0.85464        1.18823
H          2.53989       -1.87007        1.01809
H          4.03833       -1.42025        0.15247
H          2.65044        0.05612       -2.22901
H          4.10562        0.58129       -1.33342
29 29 29 29 29 29 29 29 29 29 29 29 29 29 29 29 29 29 29 29 29 29 29 29 29 29 29 29 29 29 29 29 29 29 29 29 29 29 29 29 29 29 29 29 29 29 29 29 29 29 29 29 29 29 29 29 29 29 29 29 29 29 29 29 29 29 29 29 29 29 29 29 29 29 29 29 29 29 29 29 29 29
C(ON(=O)=O)C(CON(=O)=O)(CON(=O)=O)CON(=O)=O
InChI=1S/C5H8N4O12/c10-6(11)18-1-5(2-19-7(12)13,3-20-8(14)15)4-21-9(16)17/h1-4H2
