21
metacyc CPD0-1532  -111.693704224 -111.693704224 -111.693704224 -111.693704224 -111.693704224 -111.693704224 -111.693704224 -111.693704224 -111.693704224 -111.693704224 -111.693704224 -111.693704224 -111.693704224 -111.693704224 -111.693704224
C          0.94764        0.02878       -0.04791
C          0.37886       -1.33986       -0.46586
C         -1.15586       -1.37202       -0.48444
N         -1.69025       -0.42147       -1.46891
C         -1.75937       -2.75582       -0.84779
O         -1.06026       -3.51659       -1.58005
O         -2.90130       -2.99613       -0.34245
C          2.48024        0.01080        0.05517
F          2.98491       -0.39690       -1.15859
C          3.12993        1.35223        0.39738
N          2.76485        2.39824       -0.57123
C          2.81985        1.83588        1.82925
O          2.55078        0.91987        2.66540
O          2.94885        3.07288        2.06438
H          0.51532        0.32162        0.91583
H          0.64116        0.77537       -0.78798
H          0.73891       -2.10771        0.23128
H          0.77652       -1.60898       -1.45262
H         -1.52934       -1.08798        0.50726
H          2.78919       -0.75490        0.77637
H          4.21776        1.22903        0.33892
21 21 21 21 21 21 21 21 21 21 21 21 21 21 21 21 21 21 21 21 21 21 21 21 21 21 21 21 21 21 21 21 21 21 21 21 21 21 21 21 21 21 21 21 21 21 21 21 21 21 21 21 21 21 21 21 21 21
C(CC([N+])C([O-])=O)C(F)C([N+])C(=O)[O-]
InChI=1S/C7H13FN2O4/c8-3(5(10)7(13)14)1-2-4(9)6(11)12/h3-5H,1-2,9-10H2,(H,11,12)(H,13,14)/t3-,4-,5+/m0/s1
