23
metacyc CPD0-1936  -230.900558672 -230.900558672 -230.900558672 -230.900558672 -230.900558672 -230.900558672 -230.900558672 -230.900558672 -230.900558672 -230.900558672 -230.900558672 -230.900558672 -230.900558672 -230.900558672 -230.900558672
C          0.81634        0.10803        0.11260
O          0.42556        1.45181        0.38357
C          2.34426        0.01505       -0.03452
C          2.86104       -1.40194       -0.34494
O          2.34481       -2.37250        0.55819
C          2.58606       -1.80495       -1.79533
C          3.04022       -0.71731       -2.76297
O          4.47719       -0.65991       -2.78376
C          2.48733        0.66161       -2.35285
O          3.04830        1.66787       -3.18277
O          2.83240        0.96594       -1.00219
H          0.29579       -0.20433       -0.79607
H          0.45968       -0.51918        0.93503
H          1.03459        2.03379       -0.11003
H          2.76867        0.33176        0.92657
H          3.94879       -1.39512       -0.20181
H          1.46895       -2.67021        0.25920
H          1.51529       -2.00086       -1.93058
H          3.10105       -2.74985       -2.00688
H          2.72900       -0.95799       -3.78475
H          4.76931       -0.20753       -1.96866
H          1.40200        0.70643       -2.47953
H          3.93850        1.35133       -3.42444
23 23 23 23 23 23 23 23 23 23 23 23 23 23 23 23 23 23 23 23 23 23 23 23 23 23 23 23 23 23 23 23 23 23 23 23 23 23 23 23 23 23 23 23 23 23 23 23 23 23 23 23 23 23 23 23 23 23 23 23 23 23 23 23
C(O)C1(C(O)CC(O)C(O)O1)
InChI=1S/C6H12O5/c7-2-5-3(8)1-4(9)6(10)11-5/h3-10H,1-2H2/t3-,4+,5+,6?/m0/s1
