13
metacyc CPD0-2489  -597.17215288 -597.17215288 -597.17215288 -597.17215288 -597.17215288 -597.17215288 -597.17215288 -597.17215288 -597.17215288 -597.17215288 -597.17215288 -597.17215288 -597.17215288 -597.17215288 -597.17215288
C          0.97369       -0.02762       -0.07936
N          0.31125        0.70995        1.05156
O         -0.32032        0.03535        1.87717
O          0.30829        1.95009        1.00900
C          2.47855        0.08703       -0.01378
O          2.94433        1.44336       -0.20116
C          2.98191       -0.48821        1.32498
O          2.71413       -1.70191        1.52780
O          3.61831        0.35297        2.02494
H          0.57559        0.42498       -0.99355
H          0.63443       -1.06772       -0.02408
H          2.92493       -0.50003       -0.82435
H          3.40063        1.62802        0.65930
13 13 13 13 13 13 13 13 13 13 13 13 13 13 13 13 13 13 13 13 13 13 13 13 13 13 13 13 13 13 13 13 13 13
C([N+](=O)[O-])C(O)C(=O)[O-]
InChI=1S/C3H5NO5/c5-2(3(6)7)1-4(8)9/h2,5H,1H2,(H,6,7)/p-1
