11
metacyc CROTONATE  -63.833024456 -63.833024456 -63.833024456 -63.833024456 -63.833024456 -63.833024456 -63.833024456 -63.833024456 -63.833024456 -63.833024456 -63.833024456 -63.833024456 -63.833024456 -63.833024456 -63.833024456
C          1.08359       -0.08172       -0.02193
C          2.57235       -0.08643       -0.04274
C          3.29677       -0.33194       -1.14622
C          4.83144       -0.33786       -1.17254
O          5.41362       -0.09561       -0.07949
O          5.31728       -0.59057       -2.31243
H          0.72573        0.14330        0.98790
H          0.68491       -1.06016       -0.30689
H          0.68497        0.68320       -0.69534
H          3.09513        0.12096        0.88966
H          2.81010       -0.54266       -2.09372
11 11 11 11 11 11 11 11 11 11 11 11 11 11 11 11 11 11 11 11 11 11 11 11 11 11 11 11
CC=CC(=O)[O-]
InChI=1S/C4H6O2/c1-2-3-4(5)6/h2-3H,1H3,(H,5,6)/p-1/b3-2+
