12
metacyc CYANURIC-ACID  -260.56546176 -260.56546176 -260.56546176 -260.56546176 -260.56546176 -260.56546176 -260.56546176 -260.56546176 -260.56546176 -260.56546176 -260.56546176 -260.56546176 -260.56546176 -260.56546176 -260.56546176
C         -0.63692        1.10003        0.00388
O         -1.28793        2.29466        0.00676
N          0.68548        1.18596       -0.00169
C          1.25373       -0.00990       -0.00419
O          2.61388        0.00165       -0.00991
N          0.66516       -1.19418       -0.00180
C         -0.65203       -1.09358        0.00377
O         -1.31324       -2.28185        0.00650
N         -1.37936        0.00856        0.00693
H         -0.53669        2.90765        0.00367
H          2.78275        0.95725       -0.01051
H         -0.55700       -2.89124        0.00331
12 12 12 12 12 12 12 12 12 12 12 12 12 12 12 12 12 12 12 12 12 12 12 12 12 12 12 12 12 12 12
C1(O)(=NC(O)=NC(O)=N1)
InChI=1S/C3H3N3O3/c7-1-4-2(8)6-3(9)5-1/h(H3,4,5,6,7,8,9)
