30
metacyc CYTIDINE  -92.57279912 -92.57279912 -92.57279912 -92.57279912 -92.57279912 -92.57279912 -92.57279912 -92.57279912 -92.57279912 -92.57279912 -92.57279912 -92.57279912 -92.57279912 -92.57279912 -92.57279912
C          1.18490       -0.06999        0.02032
C          0.62262       -1.38329        0.54528
C          0.81613       -2.60350       -0.36085
C          0.52591       -3.71026        0.63825
C          1.28707       -3.17776        1.88188
N          0.71459       -3.61428        3.15879
C          0.82484       -4.97635        3.46782
N          0.26326       -5.42396        4.64099
C         -0.29170       -4.58363        5.45381
C         -0.35579       -3.13266        5.20422
C          0.15033       -2.72410        4.04312
N         -0.83883       -5.08566        6.60179
O          1.39504       -5.75095        2.70616
O          1.27267       -1.72577        1.79086
O         -0.89945       -3.76381        0.83043
O          2.15071       -2.74630       -0.84881
O          2.59374       -0.17630       -0.18185
H          1.01270        0.73887        0.73766
H          0.71811        0.19913       -0.93175
H         -0.44230       -1.24130        0.77026
H          0.12480       -2.58646       -1.20894
H          0.88275       -4.69624        0.32731
H          2.34085       -3.48251        1.84592
H         -0.80557       -2.46833        5.92623
H          0.14159       -1.67054        3.78070
H         -0.54554       -6.04054        6.78535
H         -0.82577       -4.49673        7.42480
H         -1.06805       -3.68904        1.78661
H          2.53711       -1.84944       -0.94527
H          2.97928       -0.28832        0.71005
30 30 30 30 30 30 30 30 30 30 30 30 30 30 30 30 30 30 30 30 30 30 30 30 30 30 30 30 30 30 30 30 30 30 30 30 30 30 30 30 30 30 30 30 30 30 30 30 30 30 30 30 30 30 30 30 30 30 30 30 30 30 30 30 30 30 30 30 30 30 30 30 30 30 30 30 30 30 30 30 30 30 30 30 30
C(C2(C(C(C(N1(C(N=C(C=C1)N)=O))O2)O)O))O
InChI=1S/C9H13N3O5/c10-5-1-2-12(9(16)11-5)8-7(15)6(14)4(3-13)17-8/h1-2,4,6-8,13-15H,3H2,(H2,10,11,16)/t4-,6-,7-,8-/m1/s1
