10
metacyc D-ALANINE  -67.036709072 -67.036709072 -67.036709072 -67.036709072 -67.036709072 -67.036709072 -67.036709072 -67.036709072 -67.036709072 -67.036709072 -67.036709072 -67.036709072 -67.036709072 -67.036709072 -67.036709072
C          1.03614        0.05577       -0.04162
C          2.55333        0.13702       -0.06693
N          3.05589       -0.54323       -1.26683
C          3.09401        1.58566       -0.09484
O          2.35736        2.45596       -0.64477
O          4.20810        1.75043        0.48876
H          0.70001       -0.98601        0.00729
H          0.58280        0.51232       -0.92884
H          0.63881        0.57688        0.83636
H          2.95237       -0.37235        0.81742
10 10 10 10 10 10 10 10 10 10 10 10 10 10 10 10 10 10 10 10 10 10 10 10 10
CC([N+])C([O-])=O
InChI=1S/C3H7NO2/c1-2(4)3(5)6/h2H,4H2,1H3,(H,5,6)/t2-/m1/s1
