16
metacyc D-ERYTHRULOSE  -261.127778808 -261.127778808 -261.127778808 -261.127778808 -261.127778808 -261.127778808 -261.127778808 -261.127778808 -261.127778808 -261.127778808 -261.127778808 -261.127778808 -261.127778808 -261.127778808 -261.127778808
C          0.95835       -0.08671        0.04551
O          0.45308       -1.27717       -0.54762
C          2.48807       -0.09375        0.12840
O          2.96502        1.15242        0.62666
C          2.99187       -1.22744        1.01986
O          2.23004       -1.98722        1.62701
C          4.50436       -1.37039        1.13832
O          4.87205       -2.52518        1.87946
H          0.50086        0.04044        1.03249
H          0.62567        0.76145       -0.56352
H          0.58482       -1.99313        0.10734
H          2.90684       -0.25712       -0.87096
H          2.47208        1.36384        1.44028
H          4.90832       -0.49066        1.64731
H          4.93914       -1.45447        0.13911
H          4.12474       -2.72318        2.47754
16 16 16 16 16 16 16 16 16 16 16 16 16 16 16 16 16 16 16 16 16 16 16 16 16 16 16 16 16 16 16 16 16 16 16 16 16 16 16 16 16 16 16
C(O)C(O)C(=O)CO
InChI=1S/C4H8O4/c5-1-3(7)4(8)2-6/h3,5-7H,1-2H2/t3-/m1/s1
