23
metacyc D-FUCONATE  -501.074794 -501.074794 -501.074794 -501.074794 -501.074794 -501.074794 -501.074794 -501.074794 -501.074794 -501.074794 -501.074794 -501.074794 -501.074794 -501.074794 -501.074794
C          0.75301       -0.00581        0.09904
C          2.27725       -0.06245        0.01414
O          2.60925       -1.33752       -0.53693
C          2.84060        1.13664       -0.80246
O          2.48361        2.34773       -0.12454
C          4.37489        1.02718       -1.03426
O          4.64181       -0.20374       -1.73471
C          4.91770        2.23736       -1.81014
O          4.60319        3.48099       -1.12631
C          6.46017        2.10663       -1.92929
O          6.87999        0.99337       -2.35535
O          7.08387        3.14756       -1.56322
H          0.37687       -0.82564        0.72043
H          0.30877       -0.14091       -0.89433
H          0.39390        0.93913        0.51462
H          2.68003       -0.02109        1.03545
H          3.46965       -1.22372       -1.00184
H          2.35124        1.14027       -1.78503
H          3.11722        3.03449       -0.43838
H          4.87265        0.97494       -0.05734
H          5.57231       -0.10714       -2.07543
H          4.49574        2.29039       -2.82125
H          5.50172        3.90018       -1.05305
23 23 23 23 23 23 23 23 23 23 23 23 23 23 23 23 23 23 23 23 23 23 23 23 23 23 23 23 23 23 23 23 23 23 23 23 23 23 23 23 23 23 23 23 23 23 23 23 23 23 23 23 23 23 23 23 23 23 23 23 23 23 23 23
CC(O)C(O)C(O)C(O)C(=O)[O-]
InChI=1S/C6H12O6/c1-2(7)3(8)4(9)5(10)6(11)12/h2-5,7-10H,1H3,(H,11,12)/p-1/t2-,3+,4+,5-/m1/s1
