22
metacyc D-GALACTARATE  -966.33366936 -966.33366936 -966.33366936 -966.33366936 -966.33366936 -966.33366936 -966.33366936 -966.33366936 -966.33366936 -966.33366936 -966.33366936 -966.33366936 -966.33366936 -966.33366936 -966.33366936
C          1.00826        0.00712        0.01316
O          0.43591        1.07685        0.39552
O          0.51343       -1.11950       -0.28055
C          2.55629        0.11926       -0.10766
O          2.93628        1.50478        0.08934
C          3.14575       -0.77878        0.98423
O          2.80429       -2.17880        0.80972
C          4.69407       -0.70587        1.14497
O          4.98845       -1.49474        2.32533
C          5.46945       -1.26694       -0.06481
O          5.18427       -0.49387       -1.25914
C          7.00208       -1.17902        0.18197
O          7.46692        0.00994        0.15315
O          7.62988       -2.27430        0.24737
H          2.82577       -0.19364       -1.11784
H          2.07190        1.92404        0.31379
H          2.71050       -0.49133        1.95198
H          1.94838       -2.17723        0.31802
H          4.99238        0.32538        1.35708
H          4.54940       -2.34793        2.13702
H          5.19352       -2.31062       -0.26578
H          5.72376        0.31548       -1.11497
22 22 22 22 22 22 22 22 22 22 22 22 22 22 22 22 22 22 22 22 22 22 22 22 22 22 22 22 22 22 22 22 22 22 22 22 22 22 22 22 22 22 22 22 22 22 22 22 22 22 22 22 22 22 22 22 22 22 22 22 22
C(=O)([O-])C(O)C(O)C(O)C(O)C(=O)[O-]
InChI=1S/C6H10O8/c7-1(3(9)5(11)12)2(8)4(10)6(13)14/h1-4,7-10H,(H,11,12)(H,13,14)/p-2/t1-,2+,3+,4-
