24
metacyc D-GALACTONATE  -652.661114 -652.661114 -652.661114 -652.661114 -652.661114 -652.661114 -652.661114 -652.661114 -652.661114 -652.661114 -652.661114 -652.661114 -652.661114 -652.661114 -652.661114
C          0.72069        0.10015        0.06260
O          0.20242       -1.04656       -0.60487
C          2.25984        0.15192        0.11537
O          2.62488        1.38673        0.74053
C          2.84602       -1.09698        0.83153
O          2.45080       -2.26672        0.09218
C          4.38357       -1.00742        1.02945
O          4.65985        0.15919        1.82645
C          4.93716       -2.28369        1.68405
O          4.63163       -3.44806        0.87185
C          6.48003       -2.15426        1.81530
O          6.89047       -1.08233        2.34365
O          7.10800       -3.15229        1.35708
H          0.30747        0.12795        1.07756
H          0.33556        0.98786       -0.45093
H          0.82525       -1.78227       -0.40775
H          2.63598        0.16654       -0.91523
H          3.49414        1.23639        1.17881
H          2.38476       -1.16444        1.82426
H          3.13312       -2.95567        0.28174
H          4.85737       -0.86960        0.04895
H          5.59108        0.03148        2.15659
H          4.51615       -2.44136        2.68123
H          5.53134       -3.85852        0.76286
24 24 24 24 24 24 24 24 24 24 24 24 24 24 24 24 24 24 24 24 24 24 24 24 24 24 24 24 24 24 24 24 24 24 24 24 24 24 24 24 24 24 24 24 24 24 24 24 24 24 24 24 24 24 24 24 24 24 24 24 24 24 24 24 24 24 24
C(O)C(O)C(O)C(O)C(O)C(=O)[O-]
InChI=1S/C6H12O7/c7-1-2(8)3(9)4(10)5(11)6(12)13/h2-5,7-11H,1H2,(H,12,13)/p-1/t2-,3+,4+,5-/m1/s1
