20
metacyc D-GLUCURONOLACTONE  -519.36435504 -519.36435504 -519.36435504 -519.36435504 -519.36435504 -519.36435504 -519.36435504 -519.36435504 -519.36435504 -519.36435504 -519.36435504 -519.36435504 -519.36435504 -519.36435504 -519.36435504
C         -0.65262       -0.98833       -0.04861
O         -1.31382       -2.01474       -0.02959
C         -1.15613        0.40871        0.28367
O         -1.32401        0.63864        1.67476
C         -0.04174        1.27154       -0.30045
O         -0.27127        1.55832       -1.68921
C          1.18182        0.38561       -0.10380
H          1.51128        0.41993        0.94337
C          2.37880        0.65827       -1.02565
O          2.04173        0.61739       -2.41142
C          3.02984        1.99482       -0.72064
O          2.70442        2.71998        0.21462
O          0.68408       -0.94947       -0.33009
H         -2.10363        0.58828       -0.23156
H         -0.73507        0.04264        2.17146
H          0.06419        2.22714        0.22181
H         -0.54599        0.73751       -2.14391
H          3.13710       -0.11592       -0.86794
H          1.37555        1.32068       -2.56169
H          3.86416        2.27171       -1.38842
20 20 20 20 20 20 20 20 20 20 20 20 20 20 20 20 20 20 20 20 20 20 20 20 20 20 20 20 20 20 20 20 20 20 20 20 20 20 20 20 20 20 20 20 20 20 20 20 20 20 20 20 20 20 20
C1(=O)(C(O)C(O)[CH](C(O)C=O)O1)
InChI=1S/C6H8O6/c7-1-2(8)5-3(9)4(10)6(11)12-5/h1-5,8-10H/t2-,3+,4-,5+/m0/s1
