22
metacyc D-GLUCARATE  -966.33366936 -966.33366936 -966.33366936 -966.33366936 -966.33366936 -966.33366936 -966.33366936 -966.33366936 -966.33366936 -966.33366936 -966.33366936 -966.33366936 -966.33366936 -966.33366936 -966.33366936
C          0.99507       -0.07328       -0.09832
O          1.17226        0.57615       -1.18018
C          0.28886        0.75288        1.01684
O          0.73238        2.12543        0.88613
C         -1.24325        0.64275        0.85758
O         -1.65148       -0.72820        1.09029
C         -2.04687        1.48818        1.88985
O         -1.59072        1.08734        3.20155
C         -2.00660        3.00537        1.65703
O         -2.50372        3.31801        0.32767
C         -2.93096        3.71089        2.69277
O         -4.08079        4.00351        2.23438
O         -2.41578        3.98117        3.81656
O          1.43039       -1.21416        0.22423
H          0.62042        0.38412        1.99390
H          0.89457        2.19308       -0.08468
H         -1.55281        0.90423       -0.16095
H         -1.42148       -0.88414        2.02642
H         -3.09339        1.15834        1.83159
H         -1.04597        1.82932        3.52904
H         -1.00782        3.43333        1.76617
H         -3.40148        3.67737        0.52961
22 22 22 22 22 22 22 22 22 22 22 22 22 22 22 22 22 22 22 22 22 22 22 22 22 22 22 22 22 22 22 22 22 22 22 22 22 22 22 22 22 22 22 22 22 22 22 22 22 22 22 22 22 22 22 22 22 22 22 22 22
C(=O)(C(O)C(O)C(O)C(O)C(=O)[O-])[O-]
InChI=1S/C6H10O8/c7-1(3(9)5(11)12)2(8)4(10)6(13)14/h1-4,7-10H,(H,11,12)(H,13,14)/p-2/t1-,2-,3-,4+/m0/s1
