15
metacyc D-GLT  -354.983505296 -354.983505296 -354.983505296 -354.983505296 -354.983505296 -354.983505296 -354.983505296 -354.983505296 -354.983505296 -354.983505296 -354.983505296 -354.983505296 -354.983505296 -354.983505296 -354.983505296
C          1.01489       -0.15606        0.24627
C          0.29544        0.99432       -0.46743
C          1.15259        2.13308       -1.03845
C          0.31457        3.26425       -1.65479
C          1.10553        4.49959       -2.16986
O          2.29242        4.31134       -2.56628
O          0.46878        5.60184       -2.12650
N         -0.46524        2.77662       -2.80506
O          0.24064       -1.06780        0.67130
O          2.26920       -0.08445        0.34951
H         -0.41870        1.41532        0.25305
H         -0.29350        0.54251       -1.27458
H          1.85258        1.72655       -1.77972
H          1.77216        2.55271       -0.23556
H         -0.39300        3.62358       -0.89664
15 15 15 15 15 15 15 15 15 15 15 15 15 15 15 15 15 15 15 15 15 15 15 15 15 15 15 15 15 15 15 15 15 15 15 15 15 15 15 15
C(CCC(C(=O)[O-])[N+])([O-])=O
InChI=1S/C5H9NO4/c6-3(5(9)10)1-2-4(7)8/h3H,1-2,6H2,(H,7,8)(H,9,10)/p-1/t3-/m1/s1
