24
metacyc D-HAMAMELOSE  -394.7878052 -394.7878052 -394.7878052 -394.7878052 -394.7878052 -394.7878052 -394.7878052 -394.7878052 -394.7878052 -394.7878052 -394.7878052 -394.7878052 -394.7878052 -394.7878052 -394.7878052
C          0.60995        1.21192       -0.26382
O         -0.71712        1.15231        0.28675
C         -1.41432        0.00552       -0.18448
O         -2.76315        0.09179        0.24870
C         -0.76967       -1.30730        0.32066
O         -1.45978       -2.43461       -0.27437
C         -0.94251       -1.45941        1.84854
O         -0.31888       -2.65341        2.32862
C          0.70227       -1.31138       -0.16957
O          1.44870       -2.43112        0.31953
C          1.43688       -0.00228        0.17471
O          1.69548        0.04152        1.58485
H          1.06518        2.13482        0.10841
H          0.54577        1.28055       -1.35649
H         -1.44895        0.01658       -1.28157
H         -2.73011        0.67059        1.03042
H         -2.41572       -2.24096       -0.19943
H         -2.00192       -1.54733        2.10888
H         -0.53737       -0.61472        2.40882
H         -0.48242       -3.33372        1.64318
H          0.69186       -1.42409       -1.26129
H          1.51894       -2.30318        1.28998
H          2.41687        0.01283       -0.31356
H          1.22449        0.80105        1.97092
24 24 24 24 24 24 24 24 24 24 24 24 24 24 24 24 24 24 24 24 24 24 24 24 24 24 24 24 24 24 24 24 24 24 24 24 24 24 24 24 24 24 24 24 24 24 24 24 24 24 24 24 24 24 24 24 24 24 24 24 24 24 24 24 24 24 24
C1(OC(O)C(O)(CO)C(O)C(O)1)
InChI=1S/C6H12O6/c7-2-6(11)4(9)3(8)1-12-5(6)10/h3-5,7-11H,1-2H2/t3-,4-,5?,6-/m1/s1
