20
metacyc D-RIBULOSE  -327.56038104 -327.56038104 -327.56038104 -327.56038104 -327.56038104 -327.56038104 -327.56038104 -327.56038104 -327.56038104 -327.56038104 -327.56038104 -327.56038104 -327.56038104 -327.56038104 -327.56038104
C          3.05757        1.41940       -0.69593
O          2.39943        1.65340       -1.93985
C          2.53270        0.14331       -0.02073
O          2.74916       -1.02237       -0.83451
C          3.12049       -0.10763        1.37686
O          2.49660       -1.26952        1.93264
C          4.62807       -0.35455        1.37052
O          5.29599       -0.40528        0.33376
C          5.27959       -0.57473        2.72886
O          6.69712       -0.57147        2.62739
H          2.89353        2.29249       -0.05710
H          4.12345        1.35240       -0.92431
H          1.43907        1.60402       -1.79495
H          1.44217        0.21469        0.06881
H          3.64997       -0.94102       -1.21146
H          2.91207        0.74418        2.03230
H          2.43284       -1.91394        1.19531
H          4.95877       -1.53932        3.13101
H          4.98759        0.22881        3.41016
H          6.91163       -0.91759        1.73838
20 20 20 20 20 20 20 20 20 20 20 20 20 20 20 20 20 20 20 20 20 20 20 20 20 20 20 20 20 20 20 20 20 20 20 20 20 20 20 20 20 20 20 20 20 20 20 20 20 20 20 20 20 20 20
C(O)C(O)C(O)C(=O)CO
InChI=1S/C5H10O5/c6-1-3(8)5(10)4(9)2-7/h3,5-8,10H,1-2H2/t3-,5-/m1/s1
