11
metacyc D-SERINE  -218.62303744 -218.62303744 -218.62303744 -218.62303744 -218.62303744 -218.62303744 -218.62303744 -218.62303744 -218.62303744 -218.62303744 -218.62303744 -218.62303744 -218.62303744 -218.62303744 -218.62303744
C          1.06217        0.02602       -0.06214
O          0.48945       -0.63865        1.06830
C          2.58595        0.02748       -0.00939
N          3.10276        0.69906       -1.20827
C          3.12511        0.76656        1.23539
O          2.24422        1.13355        2.07511
O          4.38335        0.85624        1.33449
H          0.64928        1.04123       -0.09792
H          0.71094       -0.50382       -0.95481
H          0.84860       -0.11610        1.83007
H          2.96076       -1.00146        0.03244
11 11 11 11 11 11 11 11 11 11 11 11 11 11 11 11 11 11 11 11 11 11 11 11 11 11 11 11
C(O)C([N+])C([O-])=O
InChI=1S/C3H7NO3/c4-2(1-5)3(6)7/h2,5H,1,4H2,(H,6,7)/t2-/m1/s1
