22
metacyc D-TAGATURONATE  -705.054208 -705.054208 -705.054208 -705.054208 -705.054208 -705.054208 -705.054208 -705.054208 -705.054208 -705.054208 -705.054208 -705.054208 -705.054208 -705.054208 -705.054208
C          1.43513        0.13698        1.03042
O          1.06430        1.43892        1.47462
C          2.44599        0.17973       -0.11355
O          2.52927        1.19066       -0.82639
C          3.24229       -1.10007       -0.38330
O          3.02057       -1.45188       -1.76665
C          4.76287       -0.94450       -0.16072
O          5.27772        0.01358       -1.12059
C          5.18576       -0.51786        1.24215
O          4.60914        0.77563        1.56182
C          4.70751       -1.58057        2.25446
O          5.10343       -2.76030        2.06802
O          3.91966       -1.10437        3.12892
H          0.53198       -0.36057        0.66726
H          1.83303       -0.42060        1.87757
H          1.37199        2.05089        0.77792
H          2.83337       -1.91418        0.22093
H          3.60771       -0.83494       -2.25482
H          5.24386       -1.89403       -0.42778
H          5.17281        0.88347       -0.68128
H          6.27326       -0.39628        1.30675
H          4.16268        0.59907        2.42981
22 22 22 22 22 22 22 22 22 22 22 22 22 22 22 22 22 22 22 22 22 22 22 22 22 22 22 22 22 22 22 22 22 22 22 22 22 22 22 22 22 22 22 22 22 22 22 22 22 22 22 22 22 22 22 22 22 22 22 22 22
C(O)C(=O)C(O)C(O)C(O)C(=O)[O-]
InChI=1S/C6H10O7/c7-1-2(8)3(9)4(10)5(11)6(12)13/h3-5,7,9-11H,1H2,(H,12,13)/p-1/t3-,4-,5+/m1/s1
