14
metacyc D-THREONINE  -133.4691816 -133.4691816 -133.4691816 -133.4691816 -133.4691816 -133.4691816 -133.4691816 -133.4691816 -133.4691816 -133.4691816 -133.4691816 -133.4691816 -133.4691816 -133.4691816 -133.4691816
C          0.95784        0.11876        0.02637
C          2.46489       -0.09633        0.13767
O          2.69084       -0.74872        1.39817
C          3.03799       -0.92759       -1.02014
N          2.78971       -0.26170       -2.30624
C          4.56827       -1.12901       -0.88388
O          5.07982       -0.70175        0.19898
O          5.13706       -1.77011       -1.81490
H          0.59325        0.68934        0.88795
H          0.42419       -0.83816        0.03649
H          0.68632        0.66510       -0.88151
H          2.95327        0.88456        0.19213
H          3.67784       -0.83645        1.42432
H          2.58362       -1.92524       -1.02786
14 14 14 14 14 14 14 14 14 14 14 14 14 14 14 14 14 14 14 14 14 14 14 14 14 14 14 14 14 14 14 14 14 14 14 14 14
CC(O)C([N+])C(=O)[O-]
InChI=1S/C4H9NO3/c1-2(6)3(5)4(7)8/h2-3,6H,5H2,1H3,(H,7,8)/t2-,3+/m0/s1
