20
metacyc D-XYLULOSE  -327.56038104 -327.56038104 -327.56038104 -327.56038104 -327.56038104 -327.56038104 -327.56038104 -327.56038104 -327.56038104 -327.56038104 -327.56038104 -327.56038104 -327.56038104 -327.56038104 -327.56038104
C          3.11679        0.69615        1.36722
O          2.45192        1.95049        1.51031
C          2.59941       -0.06936        0.14039
O          2.81750        0.66172       -1.07855
C          3.19075       -1.47959       -0.00978
O          2.56532       -2.11972       -1.12657
C          4.69804       -1.48646       -0.25793
O          5.36590       -0.45570       -0.37550
C          5.35184       -2.85690       -0.38523
O          6.76878       -2.75494       -0.39532
H          2.95151        0.11995        2.28266
H          4.18208        0.92420        1.28844
H          1.49342        1.80164        1.43931
H          1.50879       -0.15676        0.21417
H          3.71781        1.04449       -1.02150
H          2.98496       -2.07239        0.88771
H          2.49133       -1.42959       -1.82035
H          5.02746       -3.32475       -1.31835
H          5.06266       -3.48070        0.46454
H          6.97986       -1.88481       -0.78935
20 20 20 20 20 20 20 20 20 20 20 20 20 20 20 20 20 20 20 20 20 20 20 20 20 20 20 20 20 20 20 20 20 20 20 20 20 20 20 20 20 20 20 20 20 20 20 20 20 20 20 20 20 20 20
C(O)C(O)C(O)C(=O)CO
InChI=1S/C5H10O5/c6-1-3(8)5(10)4(9)2-7/h3,5-8,10H,1-2H2/t3-,5+/m1/s1
