23
metacyc DE-O-GLUCONATE  -493.50173308 -493.50173308 -493.50173308 -493.50173308 -493.50173308 -493.50173308 -493.50173308 -493.50173308 -493.50173308 -493.50173308 -493.50173308 -493.50173308 -493.50173308 -493.50173308 -493.50173308
C          0.80184       -0.00385       -0.08726
O          0.30868        1.26608        0.33096
C          2.34015       -0.07856       -0.14350
O          2.69324       -1.42210       -0.48939
C          2.92442        0.97578       -1.12294
O          2.53543        2.28899       -0.68459
C          4.45814        0.85748       -1.29151
O          4.75920       -0.46446       -1.76448
C          4.99797        1.91199       -2.25662
C          6.51877        1.84718       -2.34174
O          7.00895        0.68352       -2.24046
O          7.09517        2.95554       -2.50995
H          0.37290       -0.23850       -1.06778
H          0.41624       -0.75805        0.60749
H          0.84274        1.93572       -0.15022
H          2.72786        0.13082        0.86080
H          3.55782       -1.37319       -0.96212
H          2.46101        0.80827       -2.10476
H          3.26974        2.63962       -0.13970
H          4.94200        0.97601       -0.31248
H          5.72405       -0.40651       -2.01245
H          4.71031        2.91744       -1.92911
H          4.60147        1.75280       -3.26575
23 23 23 23 23 23 23 23 23 23 23 23 23 23 23 23 23 23 23 23 23 23 23 23 23 23 23 23 23 23 23 23 23 23 23 23 23 23 23 23 23 23 23 23 23 23 23 23 23 23 23 23 23 23 23 23 23 23 23 23 23 23 23 23
C(O)C(O)C(O)C(O)CC(=O)[O-]
InChI=1S/C6H12O6/c7-2-4(9)6(12)3(8)1-5(10)11/h3-4,6-9,12H,1-2H2,(H,10,11)/p-1/t3-,4-,6+/m1/s1
