20
metacyc DEHYDRO-3-DEOXY-L-RHAMNONATE  -384.01576248 -384.01576248 -384.01576248 -384.01576248 -384.01576248 -384.01576248 -384.01576248 -384.01576248 -384.01576248 -384.01576248 -384.01576248 -384.01576248 -384.01576248 -384.01576248 -384.01576248
C          0.90098        0.11110       -0.09577
C          2.42592        0.07008       -0.10128
O          2.89595        1.41840       -0.05403
C          2.98615       -0.76579        1.07423
O          2.49576       -2.11004        1.02627
C          4.51478       -0.75450        1.16577
C          5.15178       -1.34985       -0.06598
O          4.60769       -2.24453       -0.72340
C          6.55387       -0.88774       -0.47114
O          7.10164       -0.06062        0.32645
O          7.05075       -1.35832       -1.54076
H          0.53621        0.71696       -0.93275
H          0.52662        0.58446        0.81873
H          0.46774       -0.88971       -0.17918
H          2.74292       -0.35887       -1.05787
H          2.74966        1.75869        0.84394
H          2.60979       -0.33550        2.01066
H          2.99823       -2.54750        0.30072
H          4.84476       -1.36267        2.01610
H          4.86432        0.27088        1.31560
20 20 20 20 20 20 20 20 20 20 20 20 20 20 20 20 20 20 20 20 20 20 20 20 20 20 20 20 20 20 20 20 20 20 20 20 20 20 20 20 20 20 20 20 20 20 20 20 20 20 20 20 20 20 20
CC(O)C(O)CC(=O)C([O-])=O
InChI=1S/C6H10O5/c1-3(7)4(8)2-5(9)6(10)11/h3-4,7-8H,2H2,1H3,(H,10,11)/p-1/t3-,4+/m0/s1
