22
metacyc DEHYDROQUINATE  -511.962541056 -511.962541056 -511.962541056 -511.962541056 -511.962541056 -511.962541056 -511.962541056 -511.962541056 -511.962541056 -511.962541056 -511.962541056 -511.962541056 -511.962541056 -511.962541056 -511.962541056
C          1.00749       -0.09730        0.11842
O          0.62799        0.16452        1.29960
O          0.35281       -0.36565       -0.92186
C          2.56351       -0.09043       -0.03746
O          3.16271        0.21088        1.25405
C          2.98455       -1.49987       -0.42475
C          2.79451       -1.79877       -1.89494
O          2.54148       -2.94492       -2.28096
C          3.21310       -0.71103       -2.87980
O          4.64896       -0.65907       -3.00152
C          2.70263        0.67358       -2.47265
O          3.35311        1.66910       -3.29075
C          3.01666        0.99326       -1.01305
H          2.36122        0.32615        1.82882
H          2.43202       -2.24383        0.16052
H          4.04742       -1.65178       -0.19821
H          2.82690       -0.96183       -3.87352
H          5.01486       -0.56092       -2.10330
H          1.63036        0.75876       -2.66636
H          4.21780        1.28472       -3.53604
H          2.55742        1.95693       -0.75053
H          4.09402        1.17563       -0.89387
22 22 22 22 22 22 22 22 22 22 22 22 22 22 22 22 22 22 22 22 22 22 22 22 22 22 22 22 22 22 22 22 22 22 22 22 22 22 22 22 22 22 22 22 22 22 22 22 22 22 22 22 22 22 22 22 22 22 22 22 22
C(=O)([O-])C1(O)(CC(=O)C(O)C(O)C1)
InChI=1S/C7H10O6/c8-3-1-7(13,6(11)12)2-4(9)5(3)10/h3,5,8,10,13H,1-2H2,(H,11,12)/p-1/t3-,5+,7-/m1/s1
