19
metacyc DELTA1-PIPERIDEINE-2-6-DICARBOXYLATE  -334.80531176 -334.80531176 -334.80531176 -334.80531176 -334.80531176 -334.80531176 -334.80531176 -334.80531176 -334.80531176 -334.80531176 -334.80531176 -334.80531176 -334.80531176 -334.80531176 -334.80531176
C          0.37022        1.44225       -0.19495
C         -1.04474        1.07800        0.18161
C         -1.37576       -0.37466       -0.00768
N         -0.50420       -1.32759       -0.03412
C          0.95358       -1.06897        0.06160
C          1.40223        0.38687        0.14060
C          1.61550       -1.80516        1.28223
O          1.27254       -1.42241        2.44805
O          2.53544       -2.62815        0.97597
C         -2.88770       -0.72261       -0.13964
O         -3.68671        0.26425       -0.00406
O         -3.23124       -1.91973       -0.40706
H          0.64283        2.37862        0.31139
H          0.41649        1.66139       -1.26753
H         -1.71990        1.68434       -0.43626
H         -1.24871        1.33320        1.22655
H          1.38558       -1.50588       -0.84986
H          2.24138        0.51416       -0.55682
H          1.83729        0.62351        1.11743
19 19 19 19 19 19 19 19 19 19 19 19 19 19 19 19 19 19 19 19 19 19 19 19 19 19 19 19 19 19 19 19 19 19 19 19 19 19 19 19 19 19 19 19 19 19 19 19 19 19 19 19
C1(CC(=NC(C1)C([O-])=O)C([O-])=O)
InChI=1S/C7H9NO4/c9-6(10)4-2-1-3-5(8-4)7(11)12/h4H,1-3H2,(H,9,10)(H,11,12)/p-2/t4-/m0/s1
