17
metacyc DEOXYRIBONOLACTONE  -239.956768096 -239.956768096 -239.956768096 -239.956768096 -239.956768096 -239.956768096 -239.956768096 -239.956768096 -239.956768096 -239.956768096 -239.956768096 -239.956768096 -239.956768096 -239.956768096 -239.956768096
C         -0.77061       -0.95335       -0.21010
C         -1.02243        0.49257        0.05727
O         -2.12562        1.01083        0.10574
O          0.14131        1.18175        0.18574
C          1.26767        0.28910        0.15681
C          2.18596        0.67647       -1.00101
O          2.66677        2.00824       -0.82682
C          0.69770       -1.12348        0.09896
O          1.34002       -1.97501       -0.84122
H         -1.01426       -1.18035       -1.25170
H         -1.38339       -1.56726        0.45624
H          1.80087        0.44297        1.10237
H          1.65830        0.64283       -1.95944
H          3.05547        0.01405       -1.05296
H          1.88565        2.57671       -0.68970
H          0.81218       -1.59503        1.08180
H          1.10010       -1.71624       -1.74704
17 17 17 17 17 17 17 17 17 17 17 17 17 17 17 17 17 17 17 17 17 17 17 17 17 17 17 17 17 17 17 17 17 17 17 17 17 17 17 17 17 17 17 17 17 17
C1(C(=O)OC(CO)C(O)1)
InChI=1S/C5H8O4/c6-2-4-3(7)1-5(8)9-4/h3-4,6-7H,1-2H2/t3-,4+/m0/s1
