28
metacyc DEOXYURIDINE  -130.48458796 -130.48458796 -130.48458796 -130.48458796 -130.48458796 -130.48458796 -130.48458796 -130.48458796 -130.48458796 -130.48458796 -130.48458796 -130.48458796 -130.48458796 -130.48458796 -130.48458796
C         -0.38905       -0.38622        1.35587
C          0.35526        0.71489        1.21988
N          0.59839        1.28267       -0.01505
C          0.05665        0.75345       -1.17966
O          0.18891        1.25504       -2.29368
N         -0.67358       -0.39599       -1.02758
C         -0.96387       -1.00902        0.15420
O         -1.66819       -2.00692        0.23457
C          1.37163        2.50594       -0.15332
C          0.52829        3.77056       -0.10518
C          1.58121        4.80234        0.22393
O          2.21113        5.19287       -0.99380
C          2.47748        4.04108        1.21391
C          3.95922        4.40117        1.16879
O          4.49372        4.06669       -0.11660
O          2.34668        2.63046        0.90099
H         -0.59227       -0.85283        2.31077
H          0.78988        1.19922        2.08829
H         -1.07012       -0.79300       -1.86557
H          1.93893        2.46411       -1.09218
H         -0.20977        3.71733        0.70387
H          0.00579        3.95040       -1.04924
H          1.15896        5.70580        0.67291
H          3.10339        4.78782       -1.04445
H          2.09260        4.17032        2.23245
H          4.52305        3.83165        1.91471
H          4.11662        5.46898        1.34585
H          4.46044        3.09038       -0.16820
28 28 28 28 28 28 28 28 28 28 28 28 28 28 28 28 28 28 28 28 28 28 28 28 28 28 28 28 28 28 28 28 28 28 28 28 28 28 28 28 28 28 28 28 28 28 28 28 28 28 28 28 28 28 28 28 28 28 28 28 28 28 28 28 28 28 28 28 28 28 28 28 28 28 28 28 28 28 28
C1(=CN(C(=O)NC(=O)1)C2(CC(O)C(CO)O2))
InChI=1S/C9H12N2O5/c12-4-6-5(13)3-8(16-6)11-2-1-7(14)10-9(11)15/h1-2,5-6,8,12-13H,3-4H2,(H,10,14,15)/t5-,6+,8+/m0/s1
