16
metacyc DI-H-OROTATE  -420.39355048 -420.39355048 -420.39355048 -420.39355048 -420.39355048 -420.39355048 -420.39355048 -420.39355048 -420.39355048 -420.39355048 -420.39355048 -420.39355048 -420.39355048 -420.39355048 -420.39355048
C          0.68126        1.26021       -0.23031
C         -0.78680        1.21118        0.10222
O         -1.48709        2.22141        0.18257
N         -1.35592       -0.03623        0.14339
C         -0.73159       -1.22791       -0.08319
O         -1.36198       -2.27679       -0.18570
N          0.62127       -1.17659       -0.23214
C          1.35793       -0.00482        0.26439
C          1.58425       -0.01720        1.80856
O          1.70711       -1.17884        2.30278
O          1.64422        1.10662        2.37299
H          1.11983        2.16429        0.20241
H          0.76215        1.33302       -1.32099
H         -2.35102       -0.07522        0.28435
H          1.05061       -2.06623        0.00111
H          2.35817       -0.07026       -0.18047
16 16 16 16 16 16 16 16 16 16 16 16 16 16 16 16 16 16 16 16 16 16 16 16 16 16 16 16 16 16 16 16 16 16 16 16 16 16 16 16 16 16 16
C1(C(=O)NC(=O)NC(C(=O)[O-])1)
InChI=1S/C5H6N2O4/c8-3-1-2(4(9)10)6-5(11)7-3/h2H,1H2,(H,9,10)(H2,6,7,8,11)/p-1/t2-/m0/s1
