30
metacyc DIETHYL-2R3R-2-METHYL-3-HYDROXYSUCCIN  -105.90570088 -105.90570088 -105.90570088 -105.90570088 -105.90570088 -105.90570088 -105.90570088 -105.90570088 -105.90570088 -105.90570088 -105.90570088 -105.90570088 -105.90570088 -105.90570088 -105.90570088
C          1.28453       -1.35900       -1.92634
C          2.10729       -2.10271       -0.88994
O          3.11029       -1.24557       -0.32118
C          4.26806       -1.16213       -1.02138
C          5.31673       -0.29251       -0.34582
C          6.10919        0.44605       -1.44765
C          5.20208        1.37960       -2.27091
O          5.91574        2.00973       -3.25279
C          5.14995        2.84373       -4.13329
C          4.95699        4.21839       -3.52155
O          3.99811        1.52836       -2.09644
O          7.27467        1.05148       -0.89457
C          4.79561        0.63823        0.75663
O          4.48773       -1.76290       -2.06783
H          0.48087       -1.99446       -2.30901
H          1.90549       -1.03967       -2.76943
H          0.84416       -0.45495       -1.49354
H          2.55493       -3.00877       -1.31395
H          1.45869       -2.42473       -0.06741
H          5.99868       -0.99361        0.15415
H          6.48162       -0.29848       -2.16464
H          4.18919        2.37849       -4.38240
H          5.71283        2.93046       -5.06739
H          4.38779        4.15968       -2.58855
H          4.42516        4.88069       -4.21072
H          5.92555        4.66734       -3.27486
H          7.01116        1.66398       -0.18856
H          4.19452        1.46289        0.36301
H          5.62593        1.07372        1.32353
H          4.17183        0.09779        1.47631
30 30 30 30 30 30 30 30 30 30 30 30 30 30 30 30 30 30 30 30 30 30 30 30 30 30 30 30 30 30 30 30 30 30 30 30 30 30 30 30 30 30 30 30 30 30 30 30 30 30 30 30 30 30 30 30 30 30 30 30 30 30 30 30 30 30 30 30 30 30 30 30 30 30 30 30 30 30 30 30 30 30 30 30 30
CCOC(C(C(C(OCC)=O)O)C)=O
InChI=1S/C9H16O5/c1-4-13-8(11)6(3)7(10)9(12)14-5-2/h6-7,10H,4-5H2,1-3H3/t6-,7-/m1/s1
