21
metacyc DIETHYLPYROCARBONATE  -21.5425888232 -21.5425888232 -21.5425888232 -21.5425888232 -21.5425888232 -21.5425888232 -21.5425888232 -21.5425888232 -21.5425888232 -21.5425888232 -21.5425888232 -21.5425888232 -21.5425888232 -21.5425888232 -21.5425888232
C          1.88822       -3.00288       -0.65384
C          2.09274       -1.73706       -1.46836
O          3.10235       -0.90949       -0.87910
C          4.38741       -1.23257       -1.19931
O          5.19080       -0.37327       -0.54514
C          6.50852       -0.65555       -0.56809
O          7.12553        0.24712        0.24522
C          8.46276       -0.09688        0.63421
C          8.39276       -0.93729        1.89717
O          7.07975       -1.57747       -1.12483
O          4.69527       -2.15394       -1.93874
H          1.08166       -3.61021       -1.07766
H          1.63862       -2.76064        0.38336
H          2.79923       -3.61074       -0.62810
H          1.16582       -1.15519       -1.47397
H          2.33030       -1.96826       -2.51315
H          9.00152        0.83496        0.83299
H          9.00391       -0.61908       -0.16305
H          7.89923       -0.37666        2.69810
H          9.39107       -1.22869        2.23300
H          7.79677       -1.84109        1.73333
21 21 21 21 21 21 21 21 21 21 21 21 21 21 21 21 21 21 21 21 21 21 21 21 21 21 21 21 21 21 21 21 21 21 21 21 21 21 21 21 21 21 21 21 21 21 21 21 21 21 21 21 21 21 21 21 21 21
CCOC(OC(OCC)=O)=O
InChI=1S/C6H10O5/c1-3-9-5(7)11-6(8)10-4-2/h3-4H2,1-2H3
