28
metacyc DIETHYL-2-METHYL-3-OXOSUCCINATE  -148.00615488 -148.00615488 -148.00615488 -148.00615488 -148.00615488 -148.00615488 -148.00615488 -148.00615488 -148.00615488 -148.00615488 -148.00615488 -148.00615488 -148.00615488 -148.00615488 -148.00615488
C          5.25463        1.35264       -0.75282
C          4.43908        1.15993        0.51149
O          4.89484       -0.01178        1.20709
C          4.35784       -1.18590        0.77325
O          3.52893       -1.28739       -0.11775
C          4.88904       -2.33655        1.58731
C          4.38467       -3.67085        1.04818
C          6.38481       -2.37444        1.68676
O          6.98352       -2.86967        2.63974
C          7.18522       -1.88057        0.49205
O          7.04880       -2.34595       -0.62216
O          8.07039       -0.95567        0.91793
C          9.19416       -0.73485        0.05616
C         10.28443       -1.71599        0.44840
H          4.91805        2.23523       -1.30277
H          5.17812        0.47983       -1.40950
H          6.31507        1.46997       -0.50682
H          3.36624        1.09850        0.29470
H          4.58174        2.01355        1.18178
H          4.49768       -2.20043        2.60395
H          4.71826       -3.83771        0.01781
H          3.28960       -3.70103        1.05029
H          4.74778       -4.50622        1.65521
H          9.53863        0.29176        0.21989
H          8.92985       -0.82978       -1.00269
H         10.52260       -1.61261        1.51393
H         11.19368       -1.55747       -0.13487
H          9.94651       -2.74814        0.30421
28 28 28 28 28 28 28 28 28 28 28 28 28 28 28 28 28 28 28 28 28 28 28 28 28 28 28 28 28 28 28 28 28 28 28 28 28 28 28 28 28 28 28 28 28 28 28 28 28 28 28 28 28 28 28 28 28 28 28 28 28 28 28 28 28 28 28 28 28 28 28 28 28 28 28 28 28 28 28
CCOC(=O)C(C)C(=O)C(=O)OCC
InChI=1S/C9H14O5/c1-4-13-8(11)6(3)7(10)9(12)14-5-2/h6H,4-5H2,1-3H3
