17
metacyc DIHYDROXYPENTANEDIONE  -218.07438952 -218.07438952 -218.07438952 -218.07438952 -218.07438952 -218.07438952 -218.07438952 -218.07438952 -218.07438952 -218.07438952 -218.07438952 -218.07438952 -218.07438952 -218.07438952 -218.07438952
C          1.17730        1.26168       -2.31223
C          2.67829        1.27978       -2.27252
C          3.35254        0.88775       -0.96466
C          4.87001        0.97056       -0.94312
C          5.29937        2.37255       -0.51599
O          4.85484        3.38129       -1.41163
O          5.40618        0.01225       -0.02580
O          2.68724        0.51064       -0.00550
O          3.37146        1.60964       -3.22903
H          0.75882        0.63126       -1.52526
H          0.85555        0.84581       -3.27236
H          0.79605        2.28015       -2.20524
H          5.26501        0.72136       -1.93274
H          6.39128        2.42867       -0.43882
H          4.90626        2.60866        0.48002
H          5.17422        3.16204       -2.30791
H          4.83044        0.02273        0.76466
17 17 17 17 17 17 17 17 17 17 17 17 17 17 17 17 17 17 17 17 17 17 17 17 17 17 17 17 17 17 17 17 17 17 17 17 17 17 17 17 17 17 17 17 17 17
CC(C(C(CO)O)=O)=O
InChI=1S/C5H8O4/c1-3(7)5(9)4(8)2-6/h4,6,8H,2H2,1H3/t4-/m0/s1
