12
metacyc DIHYDROXYACETONE  -187.33140352 -187.33140352 -187.33140352 -187.33140352 -187.33140352 -187.33140352 -187.33140352 -187.33140352 -187.33140352 -187.33140352 -187.33140352 -187.33140352 -187.33140352 -187.33140352 -187.33140352
C          1.07584        0.06649        0.04691
C          0.52120        0.05891       -1.37295
C          1.54445       -0.15357       -2.48488
O          1.07130        0.27134       -3.75000
O         -0.67686        0.22293       -1.61697
O          0.07106        0.11416        1.04189
H          1.71826        0.94399        0.16296
H          1.66649       -0.83949        0.20467
H          1.79284       -1.21744       -2.53901
H          2.44710        0.41826       -2.25509
H          0.12854        0.01841       -3.79613
H         -0.63023        0.70650        0.70776
12 12 12 12 12 12 12 12 12 12 12 12 12 12 12 12 12 12 12 12 12 12 12 12 12 12 12 12 12 12 12
C(C(CO)=O)O
InChI=1S/C3H6O3/c4-1-3(6)2-5/h4-5H,1-2H2
