23
metacyc DIHYDROCLAVAMINATE  -66.929598672 -66.929598672 -66.929598672 -66.929598672 -66.929598672 -66.929598672 -66.929598672 -66.929598672 -66.929598672 -66.929598672 -66.929598672 -66.929598672 -66.929598672 -66.929598672 -66.929598672
C          3.24996       -1.24270        0.55378
N          2.90694       -2.51286       -0.07742
C          2.48422       -0.09177       -0.09846
C          2.81881        1.22595        0.59192
O          4.23635        1.53821        0.42596
C          4.36901        2.96126        0.63960
H          4.88380        3.18721        1.58041
N          3.00632        3.56273        0.58814
C          3.43386        4.59424       -0.20323
O          2.99473        5.70232       -0.40631
C          4.73645        3.86280       -0.54912
C          2.13409        2.47599        0.02600
C          0.63089        2.56141        0.32314
O          0.24118        1.95597        1.35971
O         -0.05143        3.16697       -0.54963
H          4.33058       -1.09151        0.46260
H          3.01553       -1.30460        1.62233
H          1.40641       -0.28271       -0.03090
H          2.74966       -0.03864       -1.16108
H          2.64650        1.13679        1.67345
H          5.64088        4.46094       -0.42573
H          4.71393        3.39856       -1.53720
H          2.26667        2.49867       -1.06973
23 23 23 23 23 23 23 23 23 23 23 23 23 23 23 23 23 23 23 23 23 23 23 23 23 23 23 23 23 23 23 23 23 23 23 23 23 23 23 23 23 23 23 23 23 23 23 23 23 23 23 23 23 23 23 23 23 23 23 23 23 23 23 23
C([N+])CC2(O[CH]1(N(C(=O)C1)C(C([O-])=O)2))
InChI=1S/C8H12N2O4/c9-2-1-4-7(8(12)13)10-5(11)3-6(10)14-4/h4,6-7H,1-3,9H2,(H,12,13)/t4-,6+,7+/m1/s1
