18
metacyc DIHYDRO-DIOH-BENZOATE  -255.24163556 -255.24163556 -255.24163556 -255.24163556 -255.24163556 -255.24163556 -255.24163556 -255.24163556 -255.24163556 -255.24163556 -255.24163556 -255.24163556 -255.24163556 -255.24163556 -255.24163556
C          0.90737        0.04763       -0.02854
O          0.35272        1.11918        0.35670
O          0.37997       -0.99604       -0.51180
C          2.43528        0.00433        0.11487
C          3.12393        1.15827        0.07560
C          4.56324        1.18649        0.14445
C          5.28555        0.05949        0.08811
C          4.65529       -1.30318       -0.00624
C          3.10580       -1.33878        0.24255
O          2.90871       -1.83702        1.57965
O          5.00518       -1.80550       -1.30031
H          2.60286        2.10886       -0.01155
H          5.04171        2.15858        0.20398
H          6.36827        0.10381        0.10505
H          5.14944       -1.95398        0.72518
H          2.66025       -2.06005       -0.45268
H          2.28996       -1.22182        2.00928
H          4.38096       -1.37602       -1.91548
18 18 18 18 18 18 18 18 18 18 18 18 18 18 18 18 18 18 18 18 18 18 18 18 18 18 18 18 18 18 18 18 18 18 18 18 18 18 18 18 18 18 18 18 18 18 18 18 18
C([O-])(=O)C1(=CC=CC(C1O)O)
InChI=1S/C7H8O4/c8-5-3-1-2-4(6(5)9)7(10)11/h1-3,5-6,8-9H,(H,10,11)/p-1/t5-,6-/m0/s1
