21
metacyc DIMETHYL-CITRACONATE  -139.90789736 -139.90789736 -139.90789736 -139.90789736 -139.90789736 -139.90789736 -139.90789736 -139.90789736 -139.90789736 -139.90789736 -139.90789736 -139.90789736 -139.90789736 -139.90789736 -139.90789736
C          0.94513       -0.35716       -0.28099
C          2.40547       -0.11925       -0.02775
C          2.96669        0.72495        0.86162
C          2.39867        1.66649        1.85093
O          1.05007        1.68898        1.88513
C          0.51060        2.60223        2.84652
O          3.13212        2.34695        2.55590
C          3.29371       -0.95697       -0.90926
O          4.61017       -0.71763       -0.67078
C          5.52210       -1.47757       -1.46731
O          2.86209       -1.74886       -1.73328
H          0.27792        0.23628        0.34133
H          0.69544       -1.40831       -0.09916
H          0.69830       -0.12113       -1.32230
H          4.05224        0.78526        0.92472
H         -0.58054        2.55044        2.79362
H          0.81795        3.62863        2.61955
H          0.81999        2.32299        3.85928
H          6.53869       -1.19953       -1.17061
H          5.39808       -1.24181       -2.52866
H          5.39371       -2.54923       -1.28713
21 21 21 21 21 21 21 21 21 21 21 21 21 21 21 21 21 21 21 21 21 21 21 21 21 21 21 21 21 21 21 21 21 21 21 21 21 21 21 21 21 21 21 21 21 21 21 21 21 21 21 21 21 21 21 21 21 21
CC(=CC(OC)=O)C(OC)=O
InChI=1S/C7H10O4/c1-5(7(9)11-3)4-6(8)10-2/h4H,1-3H3/b5-4+
