16
metacyc DIMETHYLMAL-CPD  -354.89319784 -354.89319784 -354.89319784 -354.89319784 -354.89319784 -354.89319784 -354.89319784 -354.89319784 -354.89319784 -354.89319784 -354.89319784 -354.89319784 -354.89319784 -354.89319784 -354.89319784
C          1.01601       -0.02877        0.06707
C          2.52277       -0.06133       -0.05971
C          3.17728       -0.06059       -1.25458
C          4.68364       -0.03587       -1.38024
C          2.50020       -0.09235       -2.68022
O          1.45025       -0.78951       -2.81252
O          3.12121        0.54911       -3.58472
C          3.20153       -0.08782        1.36602
O          2.58685        0.56571        2.26781
O          4.24419       -0.79239        1.50096
H          0.47779        0.01478       -0.87822
H          0.69768        0.85647        0.62900
H          0.67030       -0.91930        0.60333
H          5.21970        0.01477       -0.43182
H          5.00318        0.84610       -1.94607
H          5.02881       -0.92948       -1.90823
16 16 16 16 16 16 16 16 16 16 16 16 16 16 16 16 16 16 16 16 16 16 16 16 16 16 16 16 16 16 16 16 16 16 16 16 16 16 16 16 16 16 16
CC(=C(C)C(=O)[O-])C(=O)[O-]
InChI=1S/C6H8O4/c1-3(5(7)8)4(2)6(9)10/h1-2H3,(H,7,8)(H,9,10)/p-2/b4-3-
