25
metacyc DINITRO-L-TYROSINE  -524.04566528 -524.04566528 -524.04566528 -524.04566528 -524.04566528 -524.04566528 -524.04566528 -524.04566528 -524.04566528 -524.04566528 -524.04566528 -524.04566528 -524.04566528 -524.04566528 -524.04566528
C          0.77029       -0.71195       -1.45362
O          0.32754       -0.69621       -0.26802
O          0.12687       -0.85004       -2.53616
C          2.30507       -0.60105       -1.61780
N          2.58638        0.82459       -1.82456
C          3.01310       -1.17760       -0.38321
C          4.53235       -1.19875       -0.43895
C          5.26046        0.00272       -0.42435
C          6.66651        0.00227       -0.43411
N          7.36275        1.29413       -0.43400
O          6.68804        2.33184       -0.42212
O          8.60455        1.26953       -0.44616
C          7.37923       -1.20617       -0.42731
O          8.74589       -1.28402       -0.37838
C          6.64102       -2.39555       -0.43242
N          7.32825       -3.67319       -0.40418
O          8.03898       -3.96482       -1.37572
O          7.11328       -4.40335        0.57474
C          5.23669       -2.40871       -0.43806
H          2.61245       -1.15265       -2.51376
H          2.65631       -2.20693       -0.23381
H          2.72839       -0.63808        0.53011
H          4.71381        0.94574       -0.39081
H          9.14566       -0.38845       -0.42473
H          4.69751       -3.35562       -0.42440
25 25 25 25 25 25 25 25 25 25 25 25 25 25 25 25 25 25 25 25 25 25 25 25 25 25 25 25 25 25 25 25 25 25 25 25 25 25 25 25 25 25 25 25 25 25 25 25 25 25 25 25 25 25 25 25 25 25 25 25 25 25 25 25 25 25 25 25 25 25
C(=O)([O-])C([N+])CC1(=CC([N+]([O-])=O)=C(O)C([N+](=O)[O-])=C1)
InChI=1S/C9H9N3O7/c10-5(9(14)15)1-4-2-6(11(16)17)8(13)7(3-4)12(18)19/h2-3,5,13H,1,10H2,(H,14,15)/t5-/m0/s1
