24
metacyc DINITRO-4-HYDROXYPHENYLPYRUVATE  -800.88651048 -800.88651048 -800.88651048 -800.88651048 -800.88651048 -800.88651048 -800.88651048 -800.88651048 -800.88651048 -800.88651048 -800.88651048 -800.88651048 -800.88651048 -800.88651048 -800.88651048
C          1.15503       -1.34642       -0.72795
O          0.55513       -1.37140       -1.84566
O          0.63636       -1.49487        0.42486
C          2.66861       -1.11717       -0.72036
O          3.24591       -0.94122       -1.79458
C          3.34613       -1.12249        0.62820
C          4.83873       -0.87538        0.55215
C          5.33895        0.43614        0.52229
C          6.72234        0.67258        0.40991
N          7.19082        2.06324        0.39587
O          6.36111        2.96786        0.55196
O          8.40995        2.25134        0.24454
C          7.62877       -0.39792        0.32751
O          8.98870       -0.24219        0.26433
C          7.10669       -1.69595        0.34398
N          7.99530       -2.83992        0.26901
O          8.67168       -2.97966       -0.75904
O          7.97897       -3.62231        1.23126
C          5.73198       -1.94753        0.45320
H          3.16441       -2.09070        1.11013
H          2.88931       -0.35029        1.25857
H          4.63335        1.26567        0.57538
H          9.22359        0.70471        0.15922
H          5.35684       -2.97035        0.44824
24 24 24 24 24 24 24 24 24 24 24 24 24 24 24 24 24 24 24 24 24 24 24 24 24 24 24 24 24 24 24 24 24 24 24 24 24 24 24 24 24 24 24 24 24 24 24 24 24 24 24 24 24 24 24 24 24 24 24 24 24 24 24 24 24 24 24
C(=O)([O-])C(=O)CC1(C=C([N+]([O-])=O)C(O)=C([N+](=O)[O-])C=1)
InChI=1S/C9H6N2O8/c12-7(9(14)15)3-4-1-5(10(16)17)8(13)6(2-4)11(18)19/h1-2,13H,3H2,(H,14,15)/p-1
