20
metacyc DINITROPHENYLHYDRAZINE  -89.509475152 -89.509475152 -89.509475152 -89.509475152 -89.509475152 -89.509475152 -89.509475152 -89.509475152 -89.509475152 -89.509475152 -89.509475152 -89.509475152 -89.509475152 -89.509475152 -89.509475152
C         -1.36858       -0.08724       -0.05478
C         -0.74010        1.16432       -0.02360
C          0.66439        1.29722       -0.04043
N          1.25651        2.58202        0.10208
N          0.65033        3.72275       -0.44224
C          1.42332        0.09864       -0.07296
C          0.80008       -1.16727       -0.10454
C         -0.59495       -1.24901       -0.09351
N         -1.25281       -2.56177       -0.10682
O         -2.48986       -2.58344       -0.10135
O         -0.52821       -3.56633       -0.11478
N          2.89807        0.12309       -0.10632
O          3.46639        1.22232       -0.18770
O          3.49175       -0.96262       -0.07411
H         -2.45649       -0.13146       -0.02764
H         -1.37862        2.04143        0.05293
H          2.28524        2.56163       -0.00303
H         -0.33401        3.81559       -0.19591
H          0.72375        3.74703       -1.46088
H          1.39714       -2.07868       -0.12988
20 20 20 20 20 20 20 20 20 20 20 20 20 20 20 20 20 20 20 20 20 20 20 20 20 20 20 20 20 20 20 20 20 20 20 20 20 20 20 20 20 20 20 20 20 20 20 20 20 20 20 20 20 20 20
C1(C=C(NN)C(=CC=1[N+]([O-])=O)[N+](=O)[O-])
InChI=1S/C6H6N4O4/c7-8-5-2-1-4(9(11)12)3-6(5)10(13)14/h1-3,8H,7H2
