19
metacyc E-2-METHOXYCARBONYLMETHYLBUTENEDIOAT  -660.03240152 -660.03240152 -660.03240152 -660.03240152 -660.03240152 -660.03240152 -660.03240152 -660.03240152 -660.03240152 -660.03240152 -660.03240152 -660.03240152 -660.03240152 -660.03240152 -660.03240152
C          0.94014        0.43718       -1.06713
O          2.25703        0.59197       -1.58024
C          3.24271        0.22056       -0.71614
O          3.01939       -0.25871        0.39904
C          4.65158        0.35547       -1.28700
C          4.83140        1.24797       -2.49364
C          5.01401        0.83592       -3.76813
C          5.04265       -0.55883       -4.41164
O          5.24702       -0.55004       -5.66504
O          4.86124       -1.55673       -3.65969
C          4.85429        2.76401       -2.15289
O          4.27455        3.08169       -1.06995
O          5.47741        3.52035       -2.95206
H          0.23577        0.83181       -1.80488
H          0.80910        0.99867       -0.13578
H          0.71372       -0.62259       -0.91032
H          5.02102       -0.65631       -1.47050
H          5.27534        0.75151       -0.47304
H          5.15928        1.61603       -4.51982
19 19 19 19 19 19 19 19 19 19 19 19 19 19 19 19 19 19 19 19 19 19 19 19 19 19 19 19 19 19 19 19 19 19 19 19 19 19 19 19 19 19 19 19 19 19 19 19 19 19 19 19
COC(=O)CC(=CC(=O)[O-])C(=O)[O-]
InChI=1S/C7H8O6/c1-13-6(10)3-4(7(11)12)2-5(8)9/h2H,3H2,1H3,(H,8,9)(H,11,12)/p-2/b4-2+
