11
metacyc ENOL-OXALOACETATE  -682.01714584 -682.01714584 -682.01714584 -682.01714584 -682.01714584 -682.01714584 -682.01714584 -682.01714584 -682.01714584 -682.01714584 -682.01714584 -682.01714584 -682.01714584 -682.01714584 -682.01714584
C          1.02644        0.09179        0.02701
O          0.56912        0.28760        1.20649
O          0.41022       -0.09215       -1.05574
C          2.60806        0.10017        0.02007
O          3.15321        0.32448        1.28147
C          3.35566       -0.07458       -1.08044
C          4.87075       -0.10210       -1.29479
O          5.62156       -0.37442       -0.31786
O          5.21750        0.10771       -2.50235
H          2.33426        0.39316        1.82801
H          2.81210       -0.20981       -2.01669
11 11 11 11 11 11 11 11 11 11 11 11 11 11 11 11 11 11 11 11 11 11 11 11 11 11 11 11
C([O-])(=O)C(O)=CC(=O)[O-]
InChI=1S/C4H4O5/c5-2(4(8)9)1-3(6)7/h1,5H,(H,6,7)(H,8,9)/p-2/b2-1-
