4
metacyc FORMALDEHYDE  -44.59206784 -44.59206784 -44.59206784 -44.59206784 -44.59206784 -44.59206784 -44.59206784 -44.59206784 -44.59206784 -44.59206784 -44.59206784 -44.59206784 -44.59206784 -44.59206784 -44.59206784
C          1.04640        0.05607        0.08224
H          0.45874        0.88436        0.50926
H          0.45874       -0.77222       -0.34477
O          2.27103        0.05607        0.08224
4 4 4 4 4 4 4
[CH2]=O
InChI=1S/CH2O/c1-2/h1H2
