4
metacyc FORMATE  -309.3270948 -309.3270948 -309.3270948 -309.3270948 -309.3270948 -309.3270948 -309.3270948 -309.3270948 -309.3270948 -309.3270948 -309.3270948 -309.3270948 -309.3270948 -309.3270948 -309.3270948
C          0.97456       -0.03022        0.05688
H          0.39820        0.94890        0.17642
O          0.24823       -1.05187       -0.06786
O          2.22780        0.09628        0.07232
4 4 4 4 4 4 4
[CH]([O-])=O
InChI=1S/CH2O2/c2-1-3/h1H,(H,2,3)/p-1
