29
metacyc FRUCTOSEGLYCINE  -407.4513088 -407.4513088 -407.4513088 -407.4513088 -407.4513088 -407.4513088 -407.4513088 -407.4513088 -407.4513088 -407.4513088 -407.4513088 -407.4513088 -407.4513088 -407.4513088 -407.4513088
C          2.00659        0.17571        1.17377
N          0.71534       -0.49692        1.27759
C          0.71788       -1.95303        1.00166
C          1.66173       -2.98342        1.70198
O          2.86346       -2.62694        1.93588
O          1.16387       -4.14741        1.83807
C          2.60842        0.15402       -0.22181
O          2.46685        1.10929       -1.00607
C          3.39282       -1.09161       -0.66426
O          3.26073       -1.25930       -2.09697
C          4.87379       -0.98191       -0.26578
O          5.05226       -0.90307        1.15603
C          5.69905       -2.18321       -0.78154
O          5.63072       -2.35992       -2.21169
C          7.19060       -2.04090       -0.43180
O          7.91289       -3.21168       -0.84943
H          2.73649       -0.17887        1.90376
H          1.88566        1.23619        1.43403
H          0.82987       -2.12012       -0.07890
H         -0.30365       -2.31023        1.20332
H          2.97064       -1.99428       -0.24870
H          2.28972       -1.18918       -2.21641
H          5.28693       -0.06427       -0.71240
H          4.35892       -1.49846        1.55587
H          5.32428       -3.11106       -0.33271
H          4.71131       -2.10173       -2.45752
H          7.35688       -1.91070        0.64030
H          7.63214       -1.19181       -0.96563
H          7.34889       -3.60547       -1.54416
29 29 29 29 29 29 29 29 29 29 29 29 29 29 29 29 29 29 29 29 29 29 29 29 29 29 29 29 29 29 29 29 29 29 29 29 29 29 29 29 29 29 29 29 29 29 29 29 29 29 29 29 29 29 29 29 29 29 29 29 29 29 29 29 29 29 29 29 29 29 29 29 29 29 29 29 29 29 29 29 29 29
C([N+]CC(=O)[O-])C(=O)C(O)C(O)C(O)CO
InChI=1S/C8H15NO7/c10-3-5(12)8(16)7(15)4(11)1-9-2-6(13)14/h5,7-10,12,15-16H,1-3H2,(H,13,14)/t5-,7-,8-/m1/s1
