10
metacyc FUM  -520.514729104 -520.514729104 -520.514729104 -520.514729104 -520.514729104 -520.514729104 -520.514729104 -520.514729104 -520.514729104 -520.514729104 -520.514729104 -520.514729104 -520.514729104 -520.514729104 -520.514729104
C          1.04139        0.00857       -0.04412
C          0.25896        0.98457        0.84187
O          0.92582        1.78015        1.56410
O         -1.00259        0.87970        0.74668
C          2.38435       -0.07291       -0.11809
C          3.16704       -1.04877       -1.00397
O          2.50039       -1.84446       -1.72629
O          4.42856       -0.94371       -0.90860
H          0.44432       -0.66431       -0.65496
H          2.98135        0.60001        0.49278
10 10 10 10 10 10 10 10 10 10 10 10 10 10 10 10 10 10 10 10 10 10 10 10 10
C(C([O-])=O)=CC(=O)[O-]
InChI=1S/C4H4O4/c5-3(6)1-2-4(7)8/h1-2H,(H,5,6)(H,7,8)/p-2/b2-1+
