26
metacyc GALACTITOL  -341.59983488 -341.59983488 -341.59983488 -341.59983488 -341.59983488 -341.59983488 -341.59983488 -341.59983488 -341.59983488 -341.59983488 -341.59983488 -341.59983488 -341.59983488 -341.59983488 -341.59983488
C          0.99809       -0.15064        0.04278
C          0.44274        1.18724       -0.48198
C          0.96729        1.50002       -1.91166
C          0.44030        2.82538       -2.50796
C          0.94997        3.02592       -3.95083
O          0.28935        2.03672       -4.77670
C          0.60027        4.40712       -4.52037
O          1.11261        4.48959       -5.85848
O         -0.99493        2.80795       -2.55656
O          2.40628        1.51485       -1.91652
O         -0.97958        1.11873       -0.38908
O          2.42068       -0.15482        0.12556
H          0.67529       -0.97875       -0.59623
H          0.59730       -0.34983        1.03980
H          0.78408        1.98335        0.19125
H          0.64857        0.67490       -2.56370
H          0.76314        3.66368       -1.88581
H          2.02911        2.86566       -4.02964
H          0.20163        2.43476       -5.66156
H          1.02216        5.22177       -3.92297
H         -0.48315        4.54032       -4.59512
H          2.08863        4.47023       -5.79782
H         -1.21819        2.30873       -3.37103
H          2.69532        2.12766       -1.21254
H         -1.34799        1.00113       -1.28078
H          2.75169       -0.01906       -0.77976
26 26 26 26 26 26 26 26 26 26 26 26 26 26 26 26 26 26 26 26 26 26 26 26 26 26 26 26 26 26 26 26 26 26 26 26 26 26 26 26 26 26 26 26 26 26 26 26 26 26 26 26 26 26 26 26 26 26 26 26 26 26 26 26 26 26 26 26 26 26 26 26 26
C(C(C(C(C(O)CO)O)O)O)O
InChI=1S/C6H14O6/c7-1-3(9)5(11)6(12)4(10)2-8/h3-12H,1-2H2/t3-,4+,5+,6-
