24
metacyc GALACTOSE  -397.59112704 -397.59112704 -397.59112704 -397.59112704 -397.59112704 -397.59112704 -397.59112704 -397.59112704 -397.59112704 -397.59112704 -397.59112704 -397.59112704 -397.59112704 -397.59112704 -397.59112704
C          1.06725        0.14780        0.14033
O          0.71288        1.46926        0.52585
C          2.58644        0.02004       -0.05326
O          2.98220       -1.31502       -0.40547
C          2.61820       -1.72843       -1.72390
O          3.16260       -3.02298       -1.93932
C          3.14229       -0.77140       -2.81572
O          4.57995       -0.89306       -2.90254
C          2.73307        0.66974       -2.47967
O          3.31304        1.58490       -3.41185
C          3.17637        1.02913       -1.05306
O          4.62340        0.95270       -1.01527
H          0.49776       -0.12629       -0.75362
H          0.74301       -0.53807        0.93021
H          0.39094        1.94759       -0.25890
H          3.05389        0.21746        0.91958
H          1.53094       -1.81821       -1.78159
H          4.07121       -2.86357       -2.26191
H          2.76486       -1.06801       -3.80009
H          4.94388       -0.41926       -2.12168
H          1.64700        0.77473       -2.57184
H          4.28024        1.45538       -3.33984
H          2.91008        2.06390       -0.81118
H          4.88850        0.98801       -0.07579
24 24 24 24 24 24 24 24 24 24 24 24 24 24 24 24 24 24 24 24 24 24 24 24 24 24 24 24 24 24 24 24 24 24 24 24 24 24 24 24 24 24 24 24 24 24 24 24 24 24 24 24 24 24 24 24 24 24 24 24 24 24 24 24 24 24 24
C(O)C1(OC(O)C(O)C(O)C(O)1)
InChI=1S/C6H12O6/c7-1-2-3(8)4(9)5(10)6(11)12-2/h2-11H,1H2/t2-,3+,4+,5-,6-/m1/s1
