24
metacyc GLC  -397.59112704 -397.59112704 -397.59112704 -397.59112704 -397.59112704 -397.59112704 -397.59112704 -397.59112704 -397.59112704 -397.59112704 -397.59112704 -397.59112704 -397.59112704 -397.59112704 -397.59112704
C          0.92224        0.05295        0.06727
O          0.57650        1.38004        0.44618
C          2.44136       -0.07882       -0.12837
O          2.83194       -1.41590       -0.48039
C          2.46696       -1.83120       -1.79467
O          3.00683       -3.12674       -2.00789
C          2.98642       -0.87747       -2.89020
O          4.42554       -0.99755       -2.97968
C          2.57898        0.56403       -2.55584
O          3.15867        1.47399       -3.49630
C          3.02823        0.92748       -1.13449
O          4.47401        0.85133       -1.09668
H          0.35161       -0.22452       -0.82245
H          0.59904       -0.62803        0.86304
H          0.22228        1.84242       -0.33504
H          2.91271        0.11933        0.84163
H          1.37671       -1.92218       -1.85005
H          3.91556       -2.96754       -2.33008
H          2.60887       -1.17652       -3.87383
H          4.78900       -0.52528       -2.19761
H          1.49255        0.66701       -2.64456
H          4.12413        1.32769       -3.44356
H          2.76332        1.96219       -0.89472
H          4.74266        0.93594       -0.16027
24 24 24 24 24 24 24 24 24 24 24 24 24 24 24 24 24 24 24 24 24 24 24 24 24 24 24 24 24 24 24 24 24 24 24 24 24 24 24 24 24 24 24 24 24 24 24 24 24 24 24 24 24 24 24 24 24 24 24 24 24 24 24 24 24 24 24
C(O)C1(OC(O)C(O)C(O)C(O)1)
InChI=1S/C6H12O6/c7-1-2-3(8)4(9)5(10)6(11)12-2/h2-11H,1H2/t2-,3-,4+,5-,6-/m1/s1
