17
metacyc GLN  -98.277147568 -98.277147568 -98.277147568 -98.277147568 -98.277147568 -98.277147568 -98.277147568 -98.277147568 -98.277147568 -98.277147568 -98.277147568 -98.277147568 -98.277147568 -98.277147568 -98.277147568
C          0.84746       -0.08172       -0.03416
O          0.11015        0.57246       -0.76510
N          0.33970       -0.96902        0.86814
C          2.35473       -0.00435       -0.06727
C          2.93315       -1.12764       -0.93313
C          4.46336       -1.19862       -0.94998
N          5.02893        0.08674       -1.38219
C          5.14014       -1.61062        0.38529
O          4.35022       -1.88105        1.34030
O          6.40231       -1.70494        0.36302
H         -0.66001       -1.06651        0.94140
H          0.95147       -1.51416        1.46651
H          2.72020       -0.05682        0.96395
H          2.63546        0.98288       -0.44913
H          2.56798       -0.99750       -1.96129
H          2.53425       -2.09471       -0.59972
H          4.75718       -1.95835       -1.68438
17 17 17 17 17 17 17 17 17 17 17 17 17 17 17 17 17 17 17 17 17 17 17 17 17 17 17 17 17 17 17 17 17 17 17 17 17 17 17 17 17 17 17 17 17 17
C(=O)(N)CCC([N+])C([O-])=O
InChI=1S/C5H10N2O3/c6-3(5(9)10)1-2-4(7)8/h3H,1-2,6H2,(H2,7,8)(H,9,10)/t3-/m0/s1
