23
metacyc GLUCOSAMINATE  -417.92070188 -417.92070188 -417.92070188 -417.92070188 -417.92070188 -417.92070188 -417.92070188 -417.92070188 -417.92070188 -417.92070188 -417.92070188 -417.92070188 -417.92070188 -417.92070188 -417.92070188
C          1.08482        0.22661       -0.17268
O          0.36585       -0.56598        0.49188
O          0.71451        1.15691       -0.95856
C          2.62799        0.10471       -0.05311
N          2.96701       -1.09468        0.71439
C          3.20198        0.07902       -1.48729
O          2.95622        1.34068       -2.15305
C          4.73676       -0.17790       -1.53622
O          5.09892       -1.45322       -0.99229
C          5.29350       -0.12502       -2.98495
O          5.05458        1.12591       -3.65013
C          6.80950       -0.35668       -3.02370
O          7.24619       -0.44545       -4.38442
H          2.98670        0.99296        0.48458
H          2.69598       -0.70121       -2.07188
H          2.00103        1.54507       -1.94373
H          5.23455        0.60445       -0.94919
H          4.42349       -1.69899       -0.32986
H          4.80782       -0.90108       -3.58916
H          4.18669        1.44887       -3.31510
H          7.10953       -1.27879       -2.51585
H          7.34111        0.48634       -2.57044
H          6.68408        0.20249       -4.85821
23 23 23 23 23 23 23 23 23 23 23 23 23 23 23 23 23 23 23 23 23 23 23 23 23 23 23 23 23 23 23 23 23 23 23 23 23 23 23 23 23 23 23 23 23 23 23 23 23 23 23 23 23 23 23 23 23 23 23 23 23 23 23 23
C([O-])(=O)C([N+])C(O)C(O)C(O)CO
InChI=1S/C6H13NO6/c7-3(6(12)13)5(11)4(10)2(9)1-8/h2-5,8-11H,1,7H2,(H,12,13)/t2-,3-,4-,5-/m1/s1
