22
metacyc GLUCONOGAMMALACTONE  -473.07990104 -473.07990104 -473.07990104 -473.07990104 -473.07990104 -473.07990104 -473.07990104 -473.07990104 -473.07990104 -473.07990104 -473.07990104 -473.07990104 -473.07990104 -473.07990104 -473.07990104
C          2.09944       -0.08818        1.62501
O          1.24160        0.96420        2.04147
C          2.37198       -0.02404        0.11692
O          1.11242       -0.17038       -0.56270
C          3.06188        1.25513       -0.38987
H          3.14262        1.15483       -1.48877
O          2.27778        2.43005       -0.17587
C          3.11332        3.48183       -0.01731
O          2.79829        4.64711       -0.20836
C          4.50786        3.01021        0.38891
O          5.60945        3.54390       -0.32943
C          4.42798        1.50055        0.21197
O          5.42647        0.95673       -0.65305
H          1.60857       -1.03361        1.87887
H          3.01977       -0.02929        2.20996
H          0.34350        0.72076        1.75030
H          2.98788       -0.88971       -0.16006
H          0.68197        0.70734       -0.53055
H          4.61852        3.25595        1.45014
H          5.26143        4.04275       -1.09114
H          4.56070        1.01846        1.18472
H          5.79245        1.69843       -1.17776
22 22 22 22 22 22 22 22 22 22 22 22 22 22 22 22 22 22 22 22 22 22 22 22 22 22 22 22 22 22 22 22 22 22 22 22 22 22 22 22 22 22 22 22 22 22 22 22 22 22 22 22 22 22 22 22 22 22 22 22 22
C(O)C(O)[CH]1(OC(=O)C(O)C(O)1)
InChI=1S/C6H10O6/c7-1-2(8)5-3(9)4(10)6(11)12-5/h2-5,7-10H,1H2/t2-,3-,4-,5-/m1/s1
