17
metacyc GLUTAMIDE  -79.407307568 -79.407307568 -79.407307568 -79.407307568 -79.407307568 -79.407307568 -79.407307568 -79.407307568 -79.407307568 -79.407307568 -79.407307568 -79.407307568 -79.407307568 -79.407307568 -79.407307568
C          0.91367        0.05681       -0.06225
O          0.17640       -0.70021       -0.68243
N          0.40656        0.99544        0.78742
C          2.42163        0.02007       -0.13977
C          3.00235       -0.79186        1.02222
C          4.53334       -0.80226        1.09197
N          5.09747       -1.28943       -0.17368
C          5.20325        0.55187        1.44442
O          4.41259        1.51686        1.66772
O          6.46568        0.53938        1.53501
H         -0.59459        1.07231        0.88580
H          1.01825        1.61635        1.30446
H          2.78585        1.05235       -0.13647
H          2.70001       -0.40801       -1.10757
H          2.63874       -1.82609        0.94080
H          2.60346       -0.41566        1.97409
H          4.82958       -1.50232        1.88330
17 17 17 17 17 17 17 17 17 17 17 17 17 17 17 17 17 17 17 17 17 17 17 17 17 17 17 17 17 17 17 17 17 17 17 17 17 17 17 17 17 17 17 17 17 17
C(=O)(N)CCC([N+])C([O-])=O
InChI=1S/C5H10N2O3/c6-3(5(9)10)1-2-4(7)8/h3H,1-2,6H2,(H2,7,8)(H,9,10)/t3-/m1/s1
