15
metacyc GLUTARATE  -422.42299968 -422.42299968 -422.42299968 -422.42299968 -422.42299968 -422.42299968 -422.42299968 -422.42299968 -422.42299968 -422.42299968 -422.42299968 -422.42299968 -422.42299968 -422.42299968 -422.42299968
C          0.91702       -0.05156        0.18807
C          0.36872        0.07454       -1.23745
C         -1.15172        0.09200       -1.44001
O         -1.88080       -0.00034       -0.41526
O         -1.51156        0.20070       -2.65334
C          2.44962       -0.05244        0.19612
C          3.17563       -0.17174        1.54260
O          2.46894       -0.26310        2.58291
O          4.44229       -0.16436        1.45060
H          0.54445       -0.97489        0.64719
H          0.54459        0.77699        0.80203
H          0.75796       -0.75653       -1.84021
H          0.75765        0.99869       -1.68487
H          2.80585        0.87366       -0.27393
H          2.80562       -0.88164       -0.42932
15 15 15 15 15 15 15 15 15 15 15 15 15 15 15 15 15 15 15 15 15 15 15 15 15 15 15 15 15 15 15 15 15 15 15 15 15 15 15 15
C(CC([O-])=O)CC(=O)[O-]
InChI=1S/C5H8O4/c6-4(7)2-1-3-5(8)9/h1-3H2,(H,6,7)(H,8,9)/p-2
