15
metacyc GLUTAMATE-1-SEMIALDEHYDE  -79.453775072 -79.453775072 -79.453775072 -79.453775072 -79.453775072 -79.453775072 -79.453775072 -79.453775072 -79.453775072 -79.453775072 -79.453775072 -79.453775072 -79.453775072 -79.453775072 -79.453775072
C         -1.18724       -0.68693       -0.68925
H         -1.43800        0.34261       -1.00358
C          0.26109       -1.07717       -0.91566
C          0.58687       -2.46145       -0.35116
C          2.05898       -2.85360       -0.49805
C          3.03451       -1.89678        0.19157
O          2.56025       -1.22552        1.15017
O          4.19639       -1.88419       -0.30060
N          0.45780       -1.02384       -2.36505
O         -2.06635       -1.40087       -0.21077
H          0.86332       -0.29647       -0.44339
H         -0.03169       -3.22498       -0.84205
H          0.30753       -2.49509        0.71017
H          2.31964       -2.93285       -1.55992
H          2.20939       -3.84682       -0.05787
15 15 15 15 15 15 15 15 15 15 15 15 15 15 15 15 15 15 15 15 15 15 15 15 15 15 15 15 15 15 15 15 15 15 15 15 15 15 15 15
[CH](C(CCC([O-])=O)[N+])=O
InChI=1S/C5H9NO3/c6-4(3-7)1-2-5(8)9/h3-4H,1-2,6H2,(H,8,9)/t4-/m0/s1
