10
metacyc GLYCOL  -72.689807704 -72.689807704 -72.689807704 -72.689807704 -72.689807704 -72.689807704 -72.689807704 -72.689807704 -72.689807704 -72.689807704 -72.689807704 -72.689807704 -72.689807704 -72.689807704 -72.689807704
C          1.06732        0.05497       -0.06334
C          0.51481       -1.06176        0.81199
O          0.97557       -0.89733        2.15257
O          2.49367        0.03347       -0.03044
H          0.73689        1.03632        0.29247
H          0.74370       -0.07256       -1.10004
H          0.84906       -2.04280        0.45893
H         -0.57844       -1.04165        0.81740
H          1.89565       -1.21567        2.16174
H          2.74906        0.44123        0.81648
10 10 10 10 10 10 10 10 10 10 10 10 10 10 10 10 10 10 10 10 10 10 10 10 10
C(CO)O
InChI=1S/C2H6O2/c3-1-2-4/h3-4H,1-2H2
