12
metacyc GLYCERATE  -444.577003536 -444.577003536 -444.577003536 -444.577003536 -444.577003536 -444.577003536 -444.577003536 -444.577003536 -444.577003536 -444.577003536 -444.577003536 -444.577003536 -444.577003536 -444.577003536 -444.577003536
C          1.03823        0.12820       -0.03181
O          0.63703        0.68073       -1.10416
O          0.38674       -0.36320        0.92781
C          2.58118        0.03705        0.05643
O          3.17933        0.63396       -1.13242
C          3.05039        0.81329        1.27367
O          4.48079        0.70820        1.37629
H          2.91165       -1.00603        0.08764
H          2.37320        0.89332       -1.64526
H          2.61216        0.44374        2.20504
H          2.81632        1.87876        1.17575
H          4.77592        0.69264        0.44311
12 12 12 12 12 12 12 12 12 12 12 12 12 12 12 12 12 12 12 12 12 12 12 12 12 12 12 12 12 12 12
C(=O)([O-])C(O)CO
InChI=1S/C3H6O4/c4-1-2(5)3(6)7/h2,4-5H,1H2,(H,6,7)/p-1/t2-/m1/s1
