8
metacyc GLYCOLLATE  -403.33218172 -403.33218172 -403.33218172 -403.33218172 -403.33218172 -403.33218172 -403.33218172 -403.33218172 -403.33218172 -403.33218172 -403.33218172 -403.33218172 -403.33218172 -403.33218172 -403.33218172
C          0.87915       -0.01263        0.02227
C          0.41233       -1.01917        1.10437
O          1.36291       -1.47548        1.81384
O         -0.82556       -1.25431        1.14452
O          2.31453        0.15663        0.09360
H          0.41241        0.96232        0.18527
H          0.62884       -0.38481       -0.97461
H          2.54545       -0.44945        0.84197
8 8 8 8 8 8 8 8 8 8 8 8 8 8 8 8 8 8 8
C(C(=O)[O-])O
InChI=1S/C2H4O3/c3-1-2(4)5/h3H,1H2,(H,4,5)/p-1
