12
metacyc GLYCERALD  -179.800195152 -179.800195152 -179.800195152 -179.800195152 -179.800195152 -179.800195152 -179.800195152 -179.800195152 -179.800195152 -179.800195152 -179.800195152 -179.800195152 -179.800195152 -179.800195152 -179.800195152
C          0.96362       -0.04491        0.10674
H          0.49888       -0.87495        0.66650
O          0.26838        0.83224       -0.39931
C          2.47977       -0.06200        0.08080
O          2.91924       -1.32228       -0.42607
C          3.03355        1.09566       -0.75483
O          4.45865        1.03748       -0.82043
H          2.83974        0.00987        1.11161
H          3.11240       -1.20693       -1.37539
H          2.74040        2.06628       -0.34146
H          2.66824        1.04082       -1.78618
H          4.80160        1.06655        0.09047
12 12 12 12 12 12 12 12 12 12 12 12 12 12 12 12 12 12 12 12 12 12 12 12 12 12 12 12 12 12 12
[CH](=O)C(O)CO
InChI=1S/C3H6O3/c4-1-3(6)2-5/h1,3,5-6H,2H2/t3-/m0/s1
