8
metacyc GLYCOLALDEHYDE  -122.154043128 -122.154043128 -122.154043128 -122.154043128 -122.154043128 -122.154043128 -122.154043128 -122.154043128 -122.154043128 -122.154043128 -122.154043128 -122.154043128 -122.154043128 -122.154043128 -122.154043128
C          0.93259       -0.00148       -0.03518
O          0.33532       -0.81632       -1.02839
C          2.44566       -0.02700       -0.10350
H          2.96640        0.65626        0.58854
O          3.06630       -0.77829       -0.85188
H          0.62196       -0.35657        0.95097
H          0.59147        1.02735       -0.17404
H          1.02745       -1.44005       -1.32851
8 8 8 8 8 8 8 8 8 8 8 8 8 8 8 8 8 8 8
C(O)[CH]=O
InChI=1S/C2H4O2/c3-1-2-4/h1,4H,2H2
