14
metacyc GLYCEROL  -153.682658808 -153.682658808 -153.682658808 -153.682658808 -153.682658808 -153.682658808 -153.682658808 -153.682658808 -153.682658808 -153.682658808 -153.682658808 -153.682658808 -153.682658808 -153.682658808 -153.682658808
C          1.13084        0.11136       -0.03877
C          0.61957       -1.15210       -0.71944
O          1.10148       -2.27966        0.03850
C         -0.90720       -1.19889       -0.79113
O         -1.30773       -2.43514       -1.39242
O          2.55537        0.11051       -0.06599
H          0.81632        0.15295        1.00960
H          0.77681        1.01623       -0.55431
H          1.04849       -1.25919       -1.72211
H          0.40686       -2.96779       -0.02065
H         -1.31678       -0.36990       -1.37855
H         -1.34608       -1.17492        0.21248
H         -0.97732       -2.44007       -2.31263
H          2.81223       -0.80108        0.19245
14 14 14 14 14 14 14 14 14 14 14 14 14 14 14 14 14 14 14 14 14 14 14 14 14 14 14 14 14 14 14 14 14 14 14 14 14
C(C(O)CO)O
InChI=1S/C3H8O3/c4-1-3(6)2-5/h3-6H,1-2H2
