13
metacyc GUANIDOACETIC_ACID  -16.9124074816 -16.9124074816 -16.9124074816 -16.9124074816 -16.9124074816 -16.9124074816 -16.9124074816 -16.9124074816 -16.9124074816 -16.9124074816 -16.9124074816 -16.9124074816 -16.9124074816 -16.9124074816 -16.9124074816
C          1.09230        0.11975        0.06030
N          0.50902       -0.47189       -1.16939
C         -0.78248       -0.62595       -1.38782
N         -1.74987       -0.28020       -0.58312
N         -1.11160       -1.13929       -2.48540
C          0.51676       -0.56468        1.31316
O          1.20106       -1.49963        1.79450
O         -0.66561       -0.17505        1.58528
H          0.85418        1.18930        0.06860
H          2.17945        0.00988        0.01373
H          1.12365       -0.86790       -1.86514
H         -1.53077       -0.02526        0.39831
H         -2.71136       -0.45612       -0.81383
13 13 13 13 13 13 13 13 13 13 13 13 13 13 13 13 13 13 13 13 13 13 13 13 13 13 13 13 13 13 13 13 13 13
C(NC(N)=[N+])C([O-])=O
InChI=1S/C3H7N3O2/c4-3(5)6-1-2(7)8/h1H2,(H,7,8)(H4,4,5,6)
