6
metacyc H2CO3  -332.86964692 -332.86964692 -332.86964692 -332.86964692 -332.86964692 -332.86964692 -332.86964692 -332.86964692 -332.86964692 -332.86964692 -332.86964692 -332.86964692 -332.86964692 -332.86964692 -332.86964692
C          1.09711       -0.01952        0.06363
O          0.65758        0.50161       -1.08404
O          0.37089       -0.42049        0.94666
O          2.42667       -0.00672        0.03544
H         -0.31676        0.45438       -0.98004
H          2.63910        0.38735       -0.83240
6 6 6 6 6 6 6 6 6 6 6 6 6
C(O)(=O)O
InChI=1S/CH2O3/c2-1(3)4/h(H2,2,3,4)
