5
metacyc HCO3  -545.09545296 -545.09545296 -545.09545296 -545.09545296 -545.09545296 -545.09545296 -545.09545296 -545.09545296 -545.09545296 -545.09545296 -545.09545296 -545.09545296 -545.09545296 -545.09545296 -545.09545296
C          1.10300       -0.08992        0.02154
O          0.74964        0.20104        1.18961
O          0.43706       -0.34598       -1.00645
O          2.42452       -0.11453       -0.07727
H          2.52110        0.12091        0.86792
5 5 5 5 5 5 5 5 5 5
C([O-])(=O)O
InChI=1S/CH2O3/c2-1(3)4/h(H2,2,3,4)/p-1
