18
metacyc HOMO-CIS-ACONITATE  -720.12049912 -720.12049912 -720.12049912 -720.12049912 -720.12049912 -720.12049912 -720.12049912 -720.12049912 -720.12049912 -720.12049912 -720.12049912 -720.12049912 -720.12049912 -720.12049912 -720.12049912
C          1.00507       -0.53398        0.11410
O          0.13217        0.14495       -0.49537
O          0.85871       -1.68025        0.64973
C          2.45123       -0.01502        0.12377
C          3.04500        1.20088       -0.00132
C          2.32141        2.53213       -0.20341
C          1.48113        3.02120        0.98391
C          0.88632        4.43788        0.89446
O          1.08957        5.11372       -0.15669
O          0.24180        4.81333        1.92909
C          4.61376        1.22635       -0.01933
O          5.15987        2.16110       -0.68166
O          5.21320        0.28694        0.59376
H          3.12437       -0.86398        0.27297
H          1.69471        2.46848       -1.10180
H          3.05584        3.31589       -0.42795
H          2.09503        2.99319        1.89275
H          0.64275        2.33307        1.14406
18 18 18 18 18 18 18 18 18 18 18 18 18 18 18 18 18 18 18 18 18 18 18 18 18 18 18 18 18 18 18 18 18 18 18 18 18 18 18 18 18 18 18 18 18 18 18 18 18
C(=O)([O-])C=C(CCC([O-])=O)C(=O)[O-]
InChI=1S/C7H8O6/c8-5(9)2-1-4(7(12)13)3-6(10)11/h3H,1-2H2,(H,8,9)(H,10,11)(H,12,13)/p-3/b4-3-
