19
metacyc HOMOGENTISATE  -239.55163556 -239.55163556 -239.55163556 -239.55163556 -239.55163556 -239.55163556 -239.55163556 -239.55163556 -239.55163556 -239.55163556 -239.55163556 -239.55163556 -239.55163556 -239.55163556 -239.55163556
C         -0.61199       -1.34899        0.01801
C         -1.39945       -0.20827        0.03774
C         -0.81932        1.05884        0.02128
C          0.58303        1.22563       -0.04305
C          1.36244        0.06099       -0.10221
C          0.77168       -1.20771       -0.05038
O          2.72007        0.03146       -0.24617
C          1.08568        2.64884       -0.17563
C          2.42756        3.01154        0.44130
O          3.42296        2.38420       -0.03356
O          2.40926        3.91852        1.31973
O         -2.76190       -0.29174        0.04831
H         -1.04346       -2.34203        0.04329
H         -1.46794        1.93039        0.03400
H          1.40927       -2.08664       -0.08359
H          3.09034        0.95416       -0.21222
H          0.34108        3.32680        0.26759
H          1.12727        2.89497       -1.24288
H         -3.00024       -1.21940       -0.10350
19 19 19 19 19 19 19 19 19 19 19 19 19 19 19 19 19 19 19 19 19 19 19 19 19 19 19 19 19 19 19 19 19 19 19 19 19 19 19 19 19 19 19 19 19 19 19 19 19 19 19 19
C1(C(=CC(=C(C=1)O)CC([O-])=O)O)
InChI=1S/C8H8O4/c9-6-1-2-7(10)5(3-6)4-8(11)12/h1-3,9-10H,4H2,(H,11,12)/p-1
