14
metacyc HOMO-SER  -125.896191808 -125.896191808 -125.896191808 -125.896191808 -125.896191808 -125.896191808 -125.896191808 -125.896191808 -125.896191808 -125.896191808 -125.896191808 -125.896191808 -125.896191808 -125.896191808 -125.896191808
C          1.01085        0.06955        0.07397
C          0.42013       -1.06339        0.91507
O          0.77338       -0.94324        2.28626
C          2.53837        0.19726        0.07725
N          3.07541        0.58412        1.38548
C          3.17323       -1.13714       -0.36684
O          3.32054       -2.02002        0.52622
O          3.41800       -1.21242       -1.60903
H          0.58532        1.02133        0.42617
H          0.66921       -0.06343       -0.95872
H          0.72331       -2.05077        0.55320
H         -0.67224       -1.02369        0.85523
H          1.74534       -1.09883        2.29998
H          2.82669        0.98340       -0.63418
14 14 14 14 14 14 14 14 14 14 14 14 14 14 14 14 14 14 14 14 14 14 14 14 14 14 14 14 14 14 14 14 14 14 14 14 14
C(CO)C([N+])C([O-])=O
InChI=1S/C4H9NO3/c5-3(1-2-6)4(7)8/h3,6H,1-2,5H2,(H,7,8)/t3-/m0/s1
