21
metacyc HOMO-CIT  -877.51329064 -877.51329064 -877.51329064 -877.51329064 -877.51329064 -877.51329064 -877.51329064 -877.51329064 -877.51329064 -877.51329064 -877.51329064 -877.51329064 -877.51329064 -877.51329064 -877.51329064
C          1.04712        0.35505       -0.08862
C          0.56081        1.70977        0.44532
O          1.42826        2.53530        0.85069
O         -0.70241        1.86919        0.44225
C          2.56528        0.10805       -0.13792
C          2.99473       -1.31925       -0.58790
O          2.36249       -2.25693        0.33068
C          2.50175       -1.60978       -2.06581
O          2.97992       -0.89501       -2.99502
O          1.60650       -2.51859       -2.14403
C          4.52404       -1.45828       -0.48914
C          5.28519       -2.71938       -0.92587
O          4.70158       -3.83552       -0.84877
O          6.51321       -2.51815       -1.21246
H          0.63465        0.24037       -1.09819
H          0.57645       -0.41147        0.53905
H          2.95571        0.28044        0.87502
H          3.02922        0.86244       -0.78478
H          1.95056       -2.88476       -0.31053
H          4.81329       -1.31885        0.56141
H          4.97657       -0.62700       -1.04738
21 21 21 21 21 21 21 21 21 21 21 21 21 21 21 21 21 21 21 21 21 21 21 21 21 21 21 21 21 21 21 21 21 21 21 21 21 21 21 21 21 21 21 21 21 21 21 21 21 21 21 21 21 21 21 21 21 21
C(C([O-])=O)CC(O)(C([O-])=O)CC([O-])=O
InChI=1S/C7H10O7/c8-4(9)1-2-7(14,6(12)13)3-5(10)11/h14H,1-3H2,(H,8,9)(H,10,11)(H,12,13)/p-3/t7-/m1/s1
