21
metacyc HOMO-I-CIT  -871.5719688 -871.5719688 -871.5719688 -871.5719688 -871.5719688 -871.5719688 -871.5719688 -871.5719688 -871.5719688 -871.5719688 -871.5719688 -871.5719688 -871.5719688 -871.5719688 -871.5719688
C          1.06772        0.00985        0.06542
C          0.36988        0.51116       -1.21141
C         -1.16578        0.43286       -1.28674
O         -1.78557       -0.05776       -0.29976
O         -1.67072        0.86254       -2.37271
C          2.62528        0.04524        0.01210
C          3.12869        1.50450       -0.07076
O          3.05258        2.19822        0.98521
O          3.52291        1.87981       -1.21873
C          3.25815       -0.64753        1.23475
O          2.79226       -2.04530        1.21990
C          4.83383       -0.74349        1.25022
O          5.31320       -1.48006        0.32256
O          5.43528       -0.31630        2.28238
H          0.73803       -1.02187        0.24092
H          0.71170        0.59501        0.92177
H          0.75570       -0.06182       -2.06500
H          0.64095        1.55945       -1.37974
H          2.94143       -0.49041       -0.89386
H          2.89316       -0.21288        2.17806
H          3.45115       -2.44313        0.60957
21 21 21 21 21 21 21 21 21 21 21 21 21 21 21 21 21 21 21 21 21 21 21 21 21 21 21 21 21 21 21 21 21 21 21 21 21 21 21 21 21 21 21 21 21 21 21 21 21 21 21 21 21 21 21 21 21 21
C(CC(=O)[O-])C(C(=O)[O-])C(O)C(=O)[O-]
InChI=1S/C7H10O7/c8-4(9)2-1-3(6(11)12)5(10)7(13)14/h3,5,10H,1-2H2,(H,8,9)(H,11,12)(H,13,14)/p-3/t3-,5+/m0/s1
