19
metacyc HYDANTOIN-5-PROPIONATE  -334.19377832 -334.19377832 -334.19377832 -334.19377832 -334.19377832 -334.19377832 -334.19377832 -334.19377832 -334.19377832 -334.19377832 -334.19377832 -334.19377832 -334.19377832 -334.19377832 -334.19377832
C          1.04655        0.07638       -0.04140
C          0.37965        0.94601        1.02013
C          1.15704        0.98520        2.34010
O          1.50590        0.02542        3.01415
N          1.35959        2.28724        2.68653
C          0.86335        3.12367        1.74059
O          0.87111        4.33977        1.81351
N          0.35714        2.35567        0.72774
C          0.22659       -0.05297       -1.32721
C          0.16482        1.28053       -2.06848
O         -0.75624        2.05708       -1.67848
O          1.05650        1.45937       -2.93985
H          1.18333       -0.93278        0.36914
H          2.05057        0.45426       -0.27108
H         -0.64591        0.62514        1.22942
H          1.80865        2.60108        3.52568
H         -0.12582        2.72854       -0.10092
H         -0.78621       -0.40558       -1.10923
H          0.69114       -0.79968       -1.98364
19 19 19 19 19 19 19 19 19 19 19 19 19 19 19 19 19 19 19 19 19 19 19 19 19 19 19 19 19 19 19 19 19 19 19 19 19 19 19 19 19 19 19 19 19 19 19 19 19 19 19 19
C(C1(C(=O)NC(=O)N1))CC(=O)[O-]
InChI=1S/C6H8N2O4/c9-4(10)2-1-3-5(11)8-6(12)7-3/h3H,1-2H2,(H,9,10)(H2,7,8,11,12)/p-1
