11
metacyc HYDANTOIN  -134.622367312 -134.622367312 -134.622367312 -134.622367312 -134.622367312 -134.622367312 -134.622367312 -134.622367312 -134.622367312 -134.622367312 -134.622367312 -134.622367312 -134.622367312 -134.622367312 -134.622367312
C         -0.74737       -0.93422        0.03803
N         -1.14430        0.35898       -0.00135
C         -0.07069        1.19381       -0.01694
C          1.19562        0.35369        0.04046
N          0.62631       -0.96627        0.07061
O         -0.12033        2.41266       -0.07041
O         -1.47146       -1.91248        0.03772
H         -2.10443        0.65362       -0.03864
H          1.75614        0.53560        0.95852
H          1.79870        0.47499       -0.86041
H          1.13316       -1.84161        0.08867
11 11 11 11 11 11 11 11 11 11 11 11 11 11 11 11 11 11 11 11 11 11 11 11 11 11 11 11
C1(NC(CN1)=O)=O
InChI=1S/C3H4N2O2/c6-2-1-4-3(7)5-2/h1H2,(H2,4,5,6,7)
