20
metacyc HYDROXYMETHYL-ETCETERA-DIHYDROXYCYCLOHEX  -135.486145744 -135.486145744 -135.486145744 -135.486145744 -135.486145744 -135.486145744 -135.486145744 -135.486145744 -135.486145744 -135.486145744 -135.486145744 -135.486145744 -135.486145744 -135.486145744 -135.486145744
C          0.98246       -1.13362        0.02129
C         -0.48233       -1.36144        0.07069
C         -1.50139       -0.48654        0.01841
O         -2.73291       -0.75182        0.06148
C         -1.09483        0.96667       -0.17295
O         -1.90310        1.86082       -0.46404
C          0.38083        1.37664       -0.07621
O          0.73109        2.19211       -1.21753
C          1.46708        0.31034        0.04948
C          2.32141        0.56229        1.30806
O          2.98599        1.82524        1.27225
H          1.36267       -1.60816       -0.89516
H          1.43256       -1.70442        0.84494
H         -0.76354       -2.41250        0.13975
H          0.41705        2.05478        0.78675
H         -0.08324        2.20572       -1.76347
H          2.16222        0.42994       -0.79487
H          3.10392       -0.19906        1.39722
H          1.71270        0.52305        2.21814
H          2.85481        2.21399        0.38696
20 20 20 20 20 20 20 20 20 20 20 20 20 20 20 20 20 20 20 20 20 20 20 20 20 20 20 20 20 20 20 20 20 20 20 20 20 20 20 20 20 20 20 20 20 20 20 20 20 20 20 20 20 20 20
C1(C=C([O-])C(=O)C(O)C(CO)1)
InChI=1S/C7H10O4/c8-3-4-1-2-5(9)7(11)6(4)10/h2,4,6,8-10H,1,3H2/p-1/t4-,6-/m0/s1
