15
metacyc HYDROXYMUCONATE-SALD  -241.736721192 -241.736721192 -241.736721192 -241.736721192 -241.736721192 -241.736721192 -241.736721192 -241.736721192 -241.736721192 -241.736721192 -241.736721192 -241.736721192 -241.736721192 -241.736721192 -241.736721192
C          1.14272        0.13062        0.04060
H          0.61543       -0.78404        0.35899
O          0.53667        1.13617       -0.30967
C          2.61627        0.07479        0.06045
C          3.22932       -1.05067        0.45324
C          4.67204       -1.17133        0.49569
C          5.39453       -2.24476        0.87153
O          4.83549       -3.44762        1.29278
C          6.98244       -2.15350        0.83969
O          7.45341       -1.04310        0.44898
O          7.59527       -3.19669        1.20759
H          3.14551        0.96751       -0.25071
H          2.63781       -1.90766        0.75176
H          5.22993       -0.28476        0.18561
H          3.87638       -3.37768        1.27018
15 15 15 15 15 15 15 15 15 15 15 15 15 15 15 15 15 15 15 15 15 15 15 15 15 15 15 15 15 15 15 15 15 15 15 15 15 15 15 15
[CH](=O)C=CC=C(O)C(=O)[O-]
InChI=1S/C6H6O4/c7-4-2-1-3-5(8)6(9)10/h1-4,8H,(H,9,10)/p-1/b2-1+,5-3-
