10
metacyc HYDROXYMALONATE  -767.03606768 -767.03606768 -767.03606768 -767.03606768 -767.03606768 -767.03606768 -767.03606768 -767.03606768 -767.03606768 -767.03606768 -767.03606768 -767.03606768 -767.03606768 -767.03606768 -767.03606768
C          0.94185        0.03804       -0.07145
O          0.38656        1.04932       -0.61883
O          0.37645       -1.04223        0.28348
C          2.48131        0.06552       -0.05052
O          2.96847        0.90275       -1.15997
C          2.88982        0.65994        1.30920
O          2.94458        1.92905        1.39270
O          3.28148       -0.17287        2.18962
H          2.90177       -0.93356       -0.19455
H          2.34420        1.65999       -1.06909
10 10 10 10 10 10 10 10 10 10 10 10 10 10 10 10 10 10 10 10 10 10 10 10 10
C([O-])(=O)C(O)C([O-])=O
InChI=1S/C3H4O5/c4-1(2(5)6)3(7)8/h1,4H,(H,5,6)(H,7,8)/p-2
