5
metacyc HYDROXYLAMINE  -36.177529208 -36.177529208 -36.177529208 -36.177529208 -36.177529208 -36.177529208 -36.177529208 -36.177529208 -36.177529208 -36.177529208 -36.177529208 -36.177529208 -36.177529208 -36.177529208 -36.177529208
N          1.03459        0.14347       -0.01941
O          2.45746        0.31194        0.22641
H          0.62592        0.79655        0.65425
H          0.86410       -0.79030        0.36314
H          2.79918        0.52682       -0.66527
5 5 5 5 5 5 5 5 5 5
NO
InChI=1S/H3NO/c1-2/h2H,1H2
