11
metacyc HYDROXYPROPANAL  -29.4272631848 -29.4272631848 -29.4272631848 -29.4272631848 -29.4272631848 -29.4272631848 -29.4272631848 -29.4272631848 -29.4272631848 -29.4272631848 -29.4272631848 -29.4272631848 -29.4272631848 -29.4272631848 -29.4272631848
C          0.92820       -0.00909       -0.07440
C          0.37623        0.85710       -1.17637
H         -0.72411        0.85682       -1.26960
O          1.06528        1.54912       -1.91980
C          2.44671       -0.01515       -0.06704
O          2.94795        1.27882        0.25065
H          0.54874       -1.02473       -0.22676
H          0.53692        0.38005        0.87107
H          2.86173       -0.32451       -1.03250
H          2.81228       -0.70759        0.69763
H          2.73380        1.84869       -0.51674
11 11 11 11 11 11 11 11 11 11 11 11 11 11 11 11 11 11 11 11 11 11 11 11 11 11 11 11
C([CH]=O)CO
InChI=1S/C3H6O2/c4-2-1-3-5/h2,5H,1,3H2
