9
metacyc HYDROXY-UREA  -187.75917568 -187.75917568 -187.75917568 -187.75917568 -187.75917568 -187.75917568 -187.75917568 -187.75917568 -187.75917568 -187.75917568 -187.75917568 -187.75917568 -187.75917568 -187.75917568 -187.75917568
C          0.95543       -0.07538        0.08470
O          0.35497       -0.59116        1.01721
N          0.31627        0.54351       -0.93479
N          2.31627       -0.08722       -0.02576
O          3.03511       -0.64407        1.05325
H         -0.69277        0.54112       -0.91886
H          0.79304        0.95122       -1.71971
H          2.83772        0.46854       -0.69079
H          2.31229       -0.95771        1.64134
9 9 9 9 9 9 9 9 9 9 9 9 9 9 9 9 9 9 9 9 9 9
C(=O)(N)NO
InChI=1S/CH4N2O2/c2-1(4)3-5/h5H,(H3,2,3,4)
