16
metacyc IMIDAZOLE-PYRUVATE  -130.40046864 -130.40046864 -130.40046864 -130.40046864 -130.40046864 -130.40046864 -130.40046864 -130.40046864 -130.40046864 -130.40046864 -130.40046864 -130.40046864 -130.40046864 -130.40046864 -130.40046864
C         -1.17192        0.13322       -0.03466
N         -0.24277        1.13102       -0.01717
C          0.98885        0.54618        0.00524
N          0.89861       -0.76275        0.01979
C         -0.45683       -1.04633        0.02237
C         -0.92988       -2.46482        0.02607
C         -2.25188       -2.70205        0.71739
O         -2.94704       -1.85123        1.27453
C         -2.77109       -4.14442        0.70584
O         -2.01731       -4.98799        0.12089
O         -3.88992       -4.38678        1.25772
H         -2.23577        0.32800       -0.05087
H         -0.43232        2.12237       -0.01859
H          1.90638        1.11749        0.01124
H         -0.17489       -3.08444        0.52340
H         -1.02028       -2.79509       -1.01536
16 16 16 16 16 16 16 16 16 16 16 16 16 16 16 16 16 16 16 16 16 16 16 16 16 16 16 16 16 16 16 16 16 16 16 16 16 16 16 16 16 16 16
C1(NC=NC(CC(=O)C(=O)[O-])=1)
InChI=1S/C6H6N2O3/c9-5(6(10)11)1-4-2-7-3-8-4/h2-3H,1H2,(H,7,8)(H,10,11)/p-1
