12
metacyc IMINOASPARTATE  -602.6420216 -602.6420216 -602.6420216 -602.6420216 -602.6420216 -602.6420216 -602.6420216 -602.6420216 -602.6420216 -602.6420216 -602.6420216 -602.6420216 -602.6420216 -602.6420216 -602.6420216
C          1.00347       -0.10061       -0.02554
O          0.26090        0.31579        0.91110
O          0.63389       -0.59490       -1.13602
C          2.50713       -0.01649        0.16204
C          3.04213        0.56038        1.46022
N          2.28294        0.99238        2.43538
C          4.58849        0.62984        1.61308
O          5.26908        0.19346        0.62482
O          5.07716        1.10707        2.69067
H          2.91272        0.58868       -0.65781
H          2.91360       -1.03018        0.06138
H          1.29383        0.85111        2.11878
12 12 12 12 12 12 12 12 12 12 12 12 12 12 12 12 12 12 12 12 12 12 12 12 12 12 12 12 12 12 12
C(=O)([O-])CC(=N)C(=O)[O-]
InChI=1S/C4H5NO4/c5-2(4(8)9)1-3(6)7/h5H,1H2,(H,6,7)(H,8,9)/p-2
