13
metacyc ISOBUTYRATE  -57.46397648 -57.46397648 -57.46397648 -57.46397648 -57.46397648 -57.46397648 -57.46397648 -57.46397648 -57.46397648 -57.46397648 -57.46397648 -57.46397648 -57.46397648 -57.46397648 -57.46397648
C          0.92019       -0.07205        0.04893
C          2.44191       -0.09001       -0.02875
C          2.98643       -1.41768        0.49005
C          2.99783        0.14912       -1.44815
O          2.14391        0.29560       -2.36656
O          4.26030        0.19330       -1.52330
H          0.58076       -0.21438        1.08031
H          0.47779       -0.86484       -0.56396
H          0.52162        0.88543       -0.30407
H          2.82454        0.71927        0.60647
H          2.67668       -2.25090       -0.15066
H          2.62560       -1.61652        1.50486
H          4.08114       -1.41637        0.52564
13 13 13 13 13 13 13 13 13 13 13 13 13 13 13 13 13 13 13 13 13 13 13 13 13 13 13 13 13 13 13 13 13 13
CC(C)C([O-])=O
InChI=1S/C4H8O2/c1-3(2)4(5)6/h3H,1-2H3,(H,5,6)/p-1
