17
metacyc ISOGLUTAMINE  -79.407307568 -79.407307568 -79.407307568 -79.407307568 -79.407307568 -79.407307568 -79.407307568 -79.407307568 -79.407307568 -79.407307568 -79.407307568 -79.407307568 -79.407307568 -79.407307568 -79.407307568
C          0.99892        0.03582        0.11836
C          0.37854       -1.31140       -0.24225
C          0.65975       -2.40456        0.78807
O          0.34335       -2.11413        1.97542
O          1.15606       -3.46050        0.31237
C          2.52920        0.08057        0.01410
C          3.01983        1.50772        0.27603
N          3.03236        1.91010        1.58504
O          3.33053        2.29737       -0.61501
N          3.22025       -0.78023        0.97312
H          0.67108        0.35189        1.11681
H          0.58919        0.78444       -0.57480
H          0.70934       -1.62649       -1.23913
H         -0.71088       -1.20004       -0.29132
H          2.85067       -0.20436       -0.99421
H          2.96735        1.20552        2.31296
H          3.43810        2.80812        1.80226
17 17 17 17 17 17 17 17 17 17 17 17 17 17 17 17 17 17 17 17 17 17 17 17 17 17 17 17 17 17 17 17 17 17 17 17 17 17 17 17 17 17 17 17 17 17
C(CC([O-])=O)C(C(N)=O)[N+]
InChI=1S/C5H10N2O3/c6-3(5(7)10)1-2-4(8)9/h3H,1-2,6H2,(H2,7,10)(H,8,9)/t3-/m0/s1
