12
metacyc ITACONIC-ANHYDRIDE  -128.932148232 -128.932148232 -128.932148232 -128.932148232 -128.932148232 -128.932148232 -128.932148232 -128.932148232 -128.932148232 -128.932148232 -128.932148232 -128.932148232 -128.932148232 -128.932148232 -128.932148232
C          1.18549        0.11839        0.09931
C          2.51889        0.05492        0.00303
C          3.37927        1.24652       -0.02351
O          4.61851        0.84052       -0.36735
C          4.65894       -0.50358       -0.53186
C          3.35996       -1.14590       -0.16133
O          5.64994       -1.11470       -0.90585
O          3.03582        2.38857        0.21160
H          0.67424        1.07569        0.18778
H          0.57120       -0.77451        0.08265
H          3.47865       -1.68942        0.77914
H          3.00951       -1.79085       -0.96941
12 12 12 12 12 12 12 12 12 12 12 12 12 12 12 12 12 12 12 12 12 12 12 12 12 12 12 12 12 12 12
C=C1(C(OC(C1)=O)=O)
InChI=1S/C5H4O3/c1-3-2-4(6)8-5(3)7/h1-2H2
