13
metacyc ITACONATE  -433.98019092 -433.98019092 -433.98019092 -433.98019092 -433.98019092 -433.98019092 -433.98019092 -433.98019092 -433.98019092 -433.98019092 -433.98019092 -433.98019092 -433.98019092 -433.98019092 -433.98019092
C          0.97468       -0.07807       -0.02630
C          2.30440        0.06321       -0.17217
C          2.82329        1.09219       -1.23491
O          1.93440        1.72478       -1.88604
O          4.08013        1.19776       -1.34603
C          3.36571       -0.69337        0.60932
C          3.10990       -1.74609        1.69471
O          1.92439       -2.05350        2.00864
O          4.17065       -2.23808        2.20500
H          0.28275        0.50297       -0.62646
H          0.54549       -0.76912        0.68753
H          3.99825        0.06304        1.09575
H          3.99964       -1.20236       -0.13090
13 13 13 13 13 13 13 13 13 13 13 13 13 13 13 13 13 13 13 13 13 13 13 13 13 13 13 13 13 13 13 13 13 13
C=C(C(=O)[O-])CC([O-])=O
InChI=1S/C5H6O4/c1-3(5(8)9)2-4(6)7/h1-2H2,(H,6,7)(H,8,9)/p-2
