29
metacyc KDO  -679.55482 -679.55482 -679.55482 -679.55482 -679.55482 -679.55482 -679.55482 -679.55482 -679.55482 -679.55482 -679.55482 -679.55482 -679.55482 -679.55482 -679.55482
C          2.08766       -1.23306        0.81726
O          1.34995       -2.34146        0.28707
C          1.92886        0.01515       -0.07081
O          0.56667        0.47311        0.00992
C          2.88448        1.13532        0.39753
H          2.64755        1.34033        1.45045
O          4.26437        0.75430        0.39510
C          4.88814        0.64359       -0.89732
O          4.36051       -0.50503       -1.59026
C          6.45933        0.41233       -0.68604
O          7.12488        1.37737       -0.21287
O          6.83032       -0.75276       -1.04776
C          4.72292        1.89348       -1.75949
C          3.27866        2.37043       -1.77303
C          2.71756        2.46122       -0.34954
O          3.44871        3.50029        0.34539
O          3.21448        3.67186       -2.37363
H          3.13207       -1.54592        0.90415
H          1.69466       -1.04067        1.82174
H          1.79476       -2.58311       -0.54402
H          2.09199       -0.27494       -1.11243
H          0.34969        0.87585       -0.84811
H          5.14521       -1.11302       -1.56347
H          5.04688        1.70083       -2.79075
H          5.35776        2.71333       -1.39911
H          2.66498        1.69877       -2.38428
H          1.67620        2.79586       -0.37266
H          4.28551        3.08678        0.64978
H          3.53825        4.28166       -1.67942
29 29 29 29 29 29 29 29 29 29 29 29 29 29 29 29 29 29 29 29 29 29 29 29 29 29 29 29 29 29 29 29 29 29 29 29 29 29 29 29 29 29 29 29 29 29 29 29 29 29 29 29 29 29 29 29 29 29 29 29 29 29 29 29 29 29 29 29 29 29 29 29 29 29 29 29 29 29 29 29 29 29
C(O)C(O)[CH]1(OC(O)(C([O-])=O)CC(C1O)O)
InChI=1S/C8H14O8/c9-2-4(11)6-5(12)3(10)1-8(15,16-6)7(13)14/h3-6,9-12,15H,1-2H2,(H,13,14)/p-1/t3-,4-,5-,6-,8-/m1/s1
