16
metacyc L-4-HYDROXYGLUTAMATE_SEMIALDEHYDE  -238.61316436 -238.61316436 -238.61316436 -238.61316436 -238.61316436 -238.61316436 -238.61316436 -238.61316436 -238.61316436 -238.61316436 -238.61316436 -238.61316436 -238.61316436 -238.61316436 -238.61316436
C          2.81341       -0.27195        1.40695
O          3.78562       -0.93831        1.76746
C          2.53869        0.08670       -0.04499
C          2.96054        1.53698       -0.28322
C          2.59165        2.02135       -1.68615
C          1.06435        2.00912       -1.93244
O          0.34059        2.11148       -0.89642
O          0.70760        1.83583       -3.13439
N          3.04051        3.41291       -1.83975
O          3.27418       -0.78275       -0.90397
H          2.09437        0.12756        2.14140
H          1.47408       -0.08589       -0.22203
H          4.04902        1.61868       -0.15502
H          2.51170        2.18342        0.48358
H          3.09242        1.40828       -2.44297
H          4.14124       -0.91268       -0.47696
16 16 16 16 16 16 16 16 16 16 16 16 16 16 16 16 16 16 16 16 16 16 16 16 16 16 16 16 16 16 16 16 16 16 16 16 16 16 16 16 16 16 16
C(=O)C(CC(C([O-])=O)[N+])O
InChI=1S/C5H9NO4/c6-4(5(9)10)1-3(8)2-7/h2-4,8H,1,6H2,(H,9,10)/t3-,4+/m1/s1
