10
metacyc L-ALPHA-ALANINE  -70.174709072 -70.174709072 -70.174709072 -70.174709072 -70.174709072 -70.174709072 -70.174709072 -70.174709072 -70.174709072 -70.174709072 -70.174709072 -70.174709072 -70.174709072 -70.174709072 -70.174709072
C          0.89595       -0.03541       -0.02237
C          2.41334       -0.00886       -0.10107
N          2.91985       -1.38448       -0.18261
C          2.95284        0.75803       -1.33140
O          2.21185        0.77640       -2.35800
O          4.07109        1.33083       -1.15550
H          0.55845       -0.55868        0.87948
H          0.44658       -0.53489       -0.88824
H          0.49691        0.98426        0.01333
H          2.80913        0.45732        0.80817
10 10 10 10 10 10 10 10 10 10 10 10 10 10 10 10 10 10 10 10 10 10 10 10 10
CC([N+])C([O-])=O
InChI=1S/C3H7NO2/c1-2(4)3(5)6/h2H,4H2,1H3,(H,5,6)/t2-/m0/s1
