14
metacyc L-ALLO-THREONINE  -133.4691816 -133.4691816 -133.4691816 -133.4691816 -133.4691816 -133.4691816 -133.4691816 -133.4691816 -133.4691816 -133.4691816 -133.4691816 -133.4691816 -133.4691816 -133.4691816 -133.4691816
C          0.91814        0.13657       -0.00385
C          2.42616       -0.04998        0.14304
O          2.65664       -0.45726        1.50223
C          2.99968       -1.08197       -0.84043
N          2.74336       -0.67367       -2.22787
C          4.53119       -1.24532       -0.66954
O          5.04912       -0.59337        0.28964
O          5.09961       -2.05992       -1.45608
H          0.55331        0.85823        0.73638
H          0.38654       -0.80198        0.18658
H          0.64369        0.50300       -0.99722
H          2.91115        0.92567        0.01342
H          3.64418       -0.52594        1.54397
H          2.55347       -2.06600       -0.65585
14 14 14 14 14 14 14 14 14 14 14 14 14 14 14 14 14 14 14 14 14 14 14 14 14 14 14 14 14 14 14 14 14 14 14 14 14
CC(O)C([N+])C(=O)[O-]
InChI=1S/C4H9NO3/c1-2(6)3(5)4(7)8/h2-3,6H,5H2,1H3,(H,7,8)/t2-,3-/m0/s1
