22
metacyc L-ARABITOL  -275.167270304 -275.167270304 -275.167270304 -275.167270304 -275.167270304 -275.167270304 -275.167270304 -275.167270304 -275.167270304 -275.167270304 -275.167270304 -275.167270304 -275.167270304 -275.167270304 -275.167270304
C          0.93632        0.00543        0.01994
C          0.41557        1.04389        1.03505
C          0.91597        2.47593        0.71150
C          0.45611        3.55736        1.71979
C          1.02442        4.93969        1.35755
O          0.55036        5.91209        2.28812
O         -0.96755        3.70446        1.79615
O          2.34813        2.47816        0.61276
O         -1.00961        0.98395        1.06914
O          2.35286       -0.09971        0.01115
H          0.59694        0.25238       -0.99284
H          0.52428       -0.98264        0.25218
H          0.79164        0.76297        2.02642
H          0.52199        2.74824       -0.27526
H          0.79928        3.29927        2.72817
H          0.68327        5.24931        0.36383
H          2.11705        4.95215        1.37689
H         -0.37534        5.66366        2.48380
H         -1.32906        3.70248        0.89384
H          2.70622        2.30352        1.50415
H         -1.35202        1.06852        0.16375
H          2.70354        0.79838       -0.16252
22 22 22 22 22 22 22 22 22 22 22 22 22 22 22 22 22 22 22 22 22 22 22 22 22 22 22 22 22 22 22 22 22 22 22 22 22 22 22 22 22 22 22 22 22 22 22 22 22 22 22 22 22 22 22 22 22 22 22 22 22
C(C(C(C(CO)O)O)O)O
InChI=1S/C5H12O5/c6-1-3(8)5(10)4(9)2-7/h3-10H,1-2H2/t3-,4-/m0/s1
