12
metacyc L-ASPARTATE-SEMIALDEHYDE  -172.180654176 -172.180654176 -172.180654176 -172.180654176 -172.180654176 -172.180654176 -172.180654176 -172.180654176 -172.180654176 -172.180654176 -172.180654176 -172.180654176 -172.180654176 -172.180654176 -172.180654176
C          1.03682       -0.12000       -0.01829
H          0.48944        0.23798       -0.90614
O          0.41998       -0.49579        0.97602
C          2.53575       -0.03648       -0.09509
C          3.05898       -0.85567       -1.26548
N          2.59737       -0.29912       -2.54499
C          4.60126       -0.83854       -1.30184
O          5.16256        0.20249       -0.85273
O          5.13512       -1.89650       -1.75031
H          2.95237       -0.40815        0.84845
H          2.80113        1.02394       -0.17959
H          2.70663       -1.89102       -1.18687
12 12 12 12 12 12 12 12 12 12 12 12 12 12 12 12 12 12 12 12 12 12 12 12 12 12 12 12 12 12 12
[CH](=O)CC([N+])C(=O)[O-]
InChI=1S/C4H7NO3/c5-3(1-2-6)4(7)8/h2-3H,1,5H2,(H,7,8)/t3-/m0/s1
