17
metacyc L-AZASERINE  -368.2468104 -368.2468104 -368.2468104 -368.2468104 -368.2468104 -368.2468104 -368.2468104 -368.2468104 -368.2468104 -368.2468104 -368.2468104 -368.2468104 -368.2468104 -368.2468104 -368.2468104
C         -0.40084        1.29282       -0.42627
C          0.59657        2.11931        0.30069
O          0.96002        1.56340        1.46644
C          2.35044        1.76394        1.80967
C          2.58850        2.76329        2.93152
C          4.06588        2.61337        3.36798
O          4.88033        2.17453        2.50270
O          4.29169        2.88294        4.58359
N          2.40335        4.14637        2.48597
O          1.03885        3.10345       -0.25726
N         -0.67480        0.09994        0.04217
N         -0.97626       -1.04689        0.42130
H         -0.78624        1.67974       -1.37538
H          2.93013        2.00349        0.91097
H          2.68773        0.77472        2.13810
H          1.91720        2.57373        3.77612
H         -0.96241       -1.11371        1.44544
17 17 17 17 17 17 17 17 17 17 17 17 17 17 17 17 17 17 17 17 17 17 17 17 17 17 17 17 17 17 17 17 17 17 17 17 17 17 17 17 17 17 17 17 17 17
C(C(OCC(C(=O)[O-])[N+])=O)=[N+]=N
InChI=1S/C5H7N3O4/c6-3(5(10)11)2-12-4(9)1-8-7/h1,3,7H,2,6H2/p+1
