18
metacyc L-DEHYDRO-ASCORBATE  -569.4980472 -569.4980472 -569.4980472 -569.4980472 -569.4980472 -569.4980472 -569.4980472 -569.4980472 -569.4980472 -569.4980472 -569.4980472 -569.4980472 -569.4980472 -569.4980472 -569.4980472
C          1.03703        0.07177        0.00983
O          0.46373       -0.01345       -1.29194
C          2.55958        0.23834       -0.09664
O          3.08199       -0.83589       -0.88982
C          2.95489        1.57557       -0.72450
C          4.43741        1.79291       -0.68127
O          5.18811        1.72082        0.27004
C          4.83718        2.18203       -2.06091
O          5.90118        2.65541       -2.38251
C          3.63254        1.98449       -2.95413
O          3.59258        2.11703       -4.15585
O          2.60511        1.62778       -2.13432
H          0.78227       -0.84603        0.55084
H          0.58426        0.91885        0.53430
H          0.25031       -0.94890       -1.46388
H          2.99152        0.15414        0.90936
H          2.53280       -0.87178       -1.69807
H          2.46665        2.41673       -0.22621
18 18 18 18 18 18 18 18 18 18 18 18 18 18 18 18 18 18 18 18 18 18 18 18 18 18 18 18 18 18 18 18 18 18 18 18 18 18 18 18 18 18 18 18 18 18 18 18 18
C(O)C(O)C1(C(=O)C(=O)C(=O)O1)
InChI=1S/C6H6O6/c7-1-2(8)5-3(9)4(10)6(11)12-5/h2,5,7-8H,1H2/t2-,5?/m0/s1
