20
metacyc L-DOPACHROME  -198.67866256 -198.67866256 -198.67866256 -198.67866256 -198.67866256 -198.67866256 -198.67866256 -198.67866256 -198.67866256 -198.67866256 -198.67866256 -198.67866256 -198.67866256 -198.67866256 -198.67866256
C          0.87077        0.02393       -0.08617
O          0.47262        1.22136       -0.23433
O          0.19919       -1.04466       -0.03143
C          2.41278       -0.12542        0.06414
N          3.14423        1.02315       -0.54108
C          3.81114        0.64215       -1.67768
C          3.80433       -0.79860       -1.78035
C          2.99913       -1.35943       -0.63526
C          4.39836       -1.48535       -2.75900
C          5.11824       -0.73083       -3.80579
O          5.73860       -1.31606       -4.68477
C          5.06687        0.80097       -3.74434
O          5.60138        1.48584       -4.60780
C          4.37100        1.42676       -2.60067
H          2.62829       -0.15504        1.13871
H          2.46550        1.78599       -0.68862
H          3.66696       -1.89197        0.05206
H          2.24225       -2.06312       -0.99435
H          4.38328       -2.56355       -2.82789
H          4.35955        2.50508       -2.54220
20 20 20 20 20 20 20 20 20 20 20 20 20 20 20 20 20 20 20 20 20 20 20 20 20 20 20 20 20 20 20 20 20 20 20 20 20 20 20 20 20 20 20 20 20 20 20 20 20 20 20 20 20 20 20
C([O-])(=O)C1(NC2(C(C1)=CC(=O)C(=O)C=2))
InChI=1S/C9H7NO4/c11-7-2-4-1-6(9(13)14)10-5(4)3-8(7)12/h2-3,6,10H,1H2,(H,13,14)/p-1/t6-/m0/s1
