16
metacyc L-ERYTHRO-4-HYDROXY-GLUTAMATE  -503.38996856 -503.38996856 -503.38996856 -503.38996856 -503.38996856 -503.38996856 -503.38996856 -503.38996856 -503.38996856 -503.38996856 -503.38996856 -503.38996856 -503.38996856 -503.38996856 -503.38996856
C         -1.17753        0.15864        0.87132
O         -2.06763        1.02907        1.10002
C          0.28017        0.50997        1.28352
C          0.60407        2.01024        1.29798
C          2.09077        2.30318        1.54502
O          2.85724        1.72630        0.45283
C          2.34710        3.84556        1.55222
O          2.37275        4.36433        0.38867
O          2.59316        4.37592        2.67110
N          0.47545       -0.07742        2.61937
O         -1.32823       -0.97791        0.31922
H          0.94814       -0.00120        0.57968
H         -0.00605        2.53295        2.04456
H          0.31620        2.42668        0.32093
H          2.44570        1.85892        2.48100
H          2.81949        2.44867       -0.21381
16 16 16 16 16 16 16 16 16 16 16 16 16 16 16 16 16 16 16 16 16 16 16 16 16 16 16 16 16 16 16 16 16 16 16 16 16 16 16 16 16 16 16
C([O-])(C(CC(O)C([O-])=O)[N+])=O
InChI=1S/C5H9NO5/c6-2(4(8)9)1-3(7)5(10)11/h2-3,7H,1,6H2,(H,8,9)(H,10,11)/p-1/t2-,3+/m0/s1
