23
metacyc L-FUCULOSE  -242.40658796 -242.40658796 -242.40658796 -242.40658796 -242.40658796 -242.40658796 -242.40658796 -242.40658796 -242.40658796 -242.40658796 -242.40658796 -242.40658796 -242.40658796 -242.40658796 -242.40658796
C          1.00117        0.12740       -0.06727
C          2.52846        0.09490       -0.07253
O          3.03643        1.42608        0.00622
C          3.08845       -0.74966        1.08843
O          2.61170       -2.10498        1.04071
C          4.62770       -0.75656        1.17875
O          5.00966       -1.47057        2.36289
C          5.28953       -1.45954       -0.00388
O          4.64298       -2.04378       -0.88088
C          6.81263       -1.48301       -0.01010
O          7.32374       -1.99083       -1.23497
H          0.63180        0.74503       -0.89307
H          0.62018        0.57655        0.85647
H          0.57634       -0.87551       -0.16861
H          2.84323       -0.31866       -1.03485
H          2.47541        1.93325        0.62029
H          2.71374       -0.33737        2.03361
H          2.87654       -2.46402        0.16622
H          5.02179        0.26175        1.25053
H          4.39337       -2.22885        2.42913
H          7.16199       -2.12503        0.80255
H          7.19653       -0.46930        0.12713
H          6.63698       -2.58634       -1.59487
23 23 23 23 23 23 23 23 23 23 23 23 23 23 23 23 23 23 23 23 23 23 23 23 23 23 23 23 23 23 23 23 23 23 23 23 23 23 23 23 23 23 23 23 23 23 23 23 23 23 23 23 23 23 23 23 23 23 23 23 23 23 23 23
CC(O)C(O)C(O)C(=O)CO
InChI=1S/C6H12O5/c1-3(8)5(10)6(11)4(9)2-7/h3,5-8,10-11H,2H2,1H3/t3-,5+,6-/m0/s1
