15
metacyc L-GLUTAMATE_GAMMA-SEMIALDEHYDE  -79.453775072 -79.453775072 -79.453775072 -79.453775072 -79.453775072 -79.453775072 -79.453775072 -79.453775072 -79.453775072 -79.453775072 -79.453775072 -79.453775072 -79.453775072 -79.453775072 -79.453775072
C          1.08066        0.10584       -0.09816
C          0.51292       -0.34773        1.24947
C         -1.01681       -0.39573        1.32191
N         -1.58214        0.91687        0.98485
C         -1.70700       -1.47049        0.44115
O         -0.92706       -2.22025       -0.21965
O         -2.96767       -1.53629        0.53129
C          2.58182        0.03015       -0.06186
H          3.00508       -0.96989        0.13893
O          3.32223        0.98984       -0.26736
H          0.78615        1.13422       -0.33104
H          0.75163       -0.53607       -0.91974
H          0.88781        0.32672        2.03168
H          0.91489       -1.33917        1.49962
H         -1.29709       -0.62771        2.35715
15 15 15 15 15 15 15 15 15 15 15 15 15 15 15 15 15 15 15 15 15 15 15 15 15 15 15 15 15 15 15 15 15 15 15 15 15 15 15 15
C(CC([N+])C([O-])=O)[CH]=O
InChI=1S/C5H9NO3/c6-4(5(8)9)2-1-3-7/h3-4H,1-2,6H2,(H,8,9)/t4-/m0/s1
