24
metacyc L-GULONATE  -652.661114 -652.661114 -652.661114 -652.661114 -652.661114 -652.661114 -652.661114 -652.661114 -652.661114 -652.661114 -652.661114 -652.661114 -652.661114 -652.661114 -652.661114
C          0.85325       -0.00816        0.03780
O          0.31750        1.24898        0.43952
C          2.39351       -0.05267        0.00424
O          2.77402       -1.38569       -0.35294
C          2.97477        1.03001       -0.94908
O          2.56435        2.32156       -0.46705
C          4.51557        0.91450       -1.11656
O          4.80205       -0.38315       -1.67156
C          5.07269        2.04219       -1.99973
O          4.75557        3.34105       -1.42916
C          6.61490        1.89967       -2.09939
O          7.03566        0.74689       -2.40276
O          7.23808        2.97537       -1.84287
H          0.44726       -0.26019       -0.94886
H          0.47438       -0.76869        0.72975
H          0.93626        1.93236        0.09592
H          2.76204        0.14805        1.01871
H          3.63959       -1.31939       -0.81783
H          2.52014        0.88761       -1.93811
H          3.24943        2.96248       -0.77726
H          4.98201        0.96992       -0.12471
H          5.73554       -0.31666       -2.01291
H          4.65475        2.00518       -3.01109
H          5.65196        3.77154       -1.40163
24 24 24 24 24 24 24 24 24 24 24 24 24 24 24 24 24 24 24 24 24 24 24 24 24 24 24 24 24 24 24 24 24 24 24 24 24 24 24 24 24 24 24 24 24 24 24 24 24 24 24 24 24 24 24 24 24 24 24 24 24 24 24 24 24 24 24
C(O)C(O)C(O)C(O)C(O)C(=O)[O-]
InChI=1S/C6H12O7/c7-1-2(8)3(9)4(10)5(11)6(12)13/h2-5,7-11H,1H2,(H,12,13)/p-1/t2-,3+,4-,5-/m0/s1
