24
metacyc L-IDONATE  -652.661114 -652.661114 -652.661114 -652.661114 -652.661114 -652.661114 -652.661114 -652.661114 -652.661114 -652.661114 -652.661114 -652.661114 -652.661114 -652.661114 -652.661114
C          0.70248        0.05596       -0.00940
O          0.18486        0.14702        1.31491
C          2.24158        0.06655       -0.08206
O          2.60560       -0.11178       -1.45460
C          2.83067        1.35961        0.54802
O          2.43387        1.41072        1.92954
C          4.36961        1.47022        0.36568
O          4.64847        1.46283       -1.04790
C          4.92392        2.73253        1.04243
O          4.61185        2.72937        2.46227
C          6.46577        2.76633        0.86858
O          6.88168        2.58328       -0.31441
O          7.09267        2.95776        1.95088
H          0.29130        0.88262       -0.60005
H          0.31367       -0.86520       -0.45656
H          0.80785        0.72389        1.81199
H          2.61667       -0.79401        0.48599
H          3.47728        0.33017       -1.57590
H          2.37198        2.21900        0.04228
H          3.11362        1.96025        2.39043
H          4.84051        0.58347        0.80950
H          5.58171        1.80234       -1.12796
H          4.50420        3.64355        0.60351
H          5.51024        2.87528        2.86365
24 24 24 24 24 24 24 24 24 24 24 24 24 24 24 24 24 24 24 24 24 24 24 24 24 24 24 24 24 24 24 24 24 24 24 24 24 24 24 24 24 24 24 24 24 24 24 24 24 24 24 24 24 24 24 24 24 24 24 24 24 24 24 24 24 24 24
C(O)C(O)C(O)C(O)C(O)C(=O)[O-]
InChI=1S/C6H12O7/c7-1-2(8)3(9)4(10)5(11)6(12)13/h2-5,7-11H,1H2,(H,12,13)/p-1/t2-,3+,4-,5+/m0/s1
