11
metacyc L-LACTATE  -303.57622864 -303.57622864 -303.57622864 -303.57622864 -303.57622864 -303.57622864 -303.57622864 -303.57622864 -303.57622864 -303.57622864 -303.57622864 -303.57622864 -303.57622864 -303.57622864 -303.57622864
C          0.92333       -0.09270       -0.11452
C          2.43370        0.01160       -0.06484
C          2.99014        0.64486       -1.37669
O          2.72368        0.04409       -2.45213
O          3.67019        1.70020       -1.17037
O          2.80149        0.83936        1.06644
H          0.58836       -0.73408       -0.93452
H          0.46871        0.89630       -0.24559
H          0.53556       -0.49660        0.82648
H          2.89095       -0.97152        0.08237
H          3.33620        1.54655        0.62480
11 11 11 11 11 11 11 11 11 11 11 11 11 11 11 11 11 11 11 11 11 11 11 11 11 11 11 11
CC(C([O-])=O)O
InChI=1S/C3H6O3/c1-2(4)3(5)6/h2,4H,1H3,(H,5,6)/p-1/t2-/m0/s1
