21
metacyc L-PANTOATE  -196.270368896 -196.270368896 -196.270368896 -196.270368896 -196.270368896 -196.270368896 -196.270368896 -196.270368896 -196.270368896 -196.270368896 -196.270368896 -196.270368896 -196.270368896 -196.270368896 -196.270368896
C          1.01961        0.02745        0.04694
C          2.55972        0.06562        0.05790
C          3.02640        0.47175        1.47143
C          3.10224       -1.34447       -0.28684
O          2.66750       -2.34649        0.63447
C          3.10071        1.05603       -1.00542
C          2.63591        2.54203       -0.84063
O          3.53383        3.28628       -0.33392
O          1.48431        2.82426       -1.26440
O          4.55841        1.03704       -0.96334
H          0.63262       -0.73011        0.73734
H          0.63907       -0.20824       -0.95297
H          0.58889        0.98456        0.35694
H          2.61076       -0.18936        2.23966
H          2.70323        1.48786        1.72310
H          4.11767        0.43597        1.55924
H          4.19745       -1.36857       -0.29818
H          2.75916       -1.65204       -1.28149
H          3.10571       -2.14577        1.47827
H          2.81832        0.72864       -2.01228
H          4.75848        1.95811       -0.65652
21 21 21 21 21 21 21 21 21 21 21 21 21 21 21 21 21 21 21 21 21 21 21 21 21 21 21 21 21 21 21 21 21 21 21 21 21 21 21 21 21 21 21 21 21 21 21 21 21 21 21 21 21 21 21 21 21 21
CC(C)(CO)C(C([O-])=O)O
InChI=1S/C6H12O4/c1-6(2,3-7)4(8)5(9)10/h4,7-8H,3H2,1-2H3,(H,9,10)/p-1/t4-/m0/s1
