21
metacyc L-RHAMNONO-14-LACTONE  -321.49358104 -321.49358104 -321.49358104 -321.49358104 -321.49358104 -321.49358104 -321.49358104 -321.49358104 -321.49358104 -321.49358104 -321.49358104 -321.49358104 -321.49358104 -321.49358104 -321.49358104
C          3.23468        1.11474        0.48457
C          2.33831       -0.05153        0.08440
C          3.10500       -1.38325        0.08150
H          3.94026       -1.30549       -0.62640
C          3.59745       -1.89000        1.42895
C          3.81655       -3.36753        1.14085
O          5.13026       -3.60407        0.65206
C          2.71696       -3.63472        0.12004
O          2.26642       -2.44980       -0.39916
O          2.32111       -4.72896       -0.24057
O          2.63413       -1.70531        2.47372
O          1.20869       -0.08887        0.95890
H          4.11272        1.18272       -0.16382
H          3.57231        1.02078        1.52197
H          2.68099        2.05808        0.42301
H          1.93833        0.12571       -0.92035
H          4.51518       -1.37881        1.73435
H          3.64364       -3.97706        2.03296
H          5.13889       -3.47725       -0.31359
H          1.78648       -2.10427        2.18958
H          1.54820       -0.07748        1.87598
21 21 21 21 21 21 21 21 21 21 21 21 21 21 21 21 21 21 21 21 21 21 21 21 21 21 21 21 21 21 21 21 21 21 21 21 21 21 21 21 21 21 21 21 21 21 21 21 21 21 21 21 21 21 21 21 21 21
CC([CH]1(C(C(O)C(O1)=O)O))O
InChI=1S/C6H10O5/c1-2(7)5-3(8)4(9)6(10)11-5/h2-5,7-9H,1H3/t2-,3-,4+,5-/m0/s1
