20
metacyc L-RIBULOSE  -327.56038104 -327.56038104 -327.56038104 -327.56038104 -327.56038104 -327.56038104 -327.56038104 -327.56038104 -327.56038104 -327.56038104 -327.56038104 -327.56038104 -327.56038104 -327.56038104 -327.56038104
C          3.00457        0.70658       -1.33382
O          2.33964        0.13729       -2.46047
C          2.48543        0.10387       -0.02010
O          2.70136       -1.31676        0.04120
C          3.07694        0.75291        1.24096
O          2.45112        0.17059        2.38900
C          4.58399        0.54898        1.38694
O          5.25412       -0.10850        0.58627
C          5.23254        1.18403        2.61081
O          6.64989        1.12061        2.53823
H          2.84128        1.78822       -1.35660
H          4.06971        0.51348       -1.48019
H          1.38016        0.18733       -2.30997
H          1.39432        0.21523        0.01123
H          3.59921       -1.48185       -0.31498
H          2.87089        1.82887        1.24400
H          2.38429       -0.78950        2.19547
H          4.90422        0.65410        3.50866
H          4.94306        2.23640        2.67297
H          6.86715        0.31341        2.03043
20 20 20 20 20 20 20 20 20 20 20 20 20 20 20 20 20 20 20 20 20 20 20 20 20 20 20 20 20 20 20 20 20 20 20 20 20 20 20 20 20 20 20 20 20 20 20 20 20 20 20 20 20 20 20
C(O)C(O)C(O)C(=O)CO
InChI=1S/C5H10O5/c6-1-3(8)5(10)4(9)2-7/h3,5-8,10H,1-2H2/t3-,5-/m0/s1
