22
metacyc L-SORBOSONE  -429.98470104 -429.98470104 -429.98470104 -429.98470104 -429.98470104 -429.98470104 -429.98470104 -429.98470104 -429.98470104 -429.98470104 -429.98470104 -429.98470104 -429.98470104 -429.98470104 -429.98470104
C          3.08744       -1.47277        0.18065
H          2.50556       -2.33978       -0.16873
O          4.21343       -1.53753        0.65229
C          2.38444       -0.14804        0.03782
C          3.10576        1.05210        0.62696
C          4.01428        1.65655       -0.47323
C          4.74664        2.92571        0.01312
C          5.69872        3.51392       -1.03801
O          4.93244        4.02569       -2.13059
O          3.77013        3.92510        0.34960
O          4.96841        0.70789       -0.96084
O          2.14016        1.97442        1.13145
O          1.30859       -0.13361       -0.54822
H          3.70623        0.72839        1.48630
H          3.37259        1.93529       -1.31901
H          5.32539        2.69105        0.91401
H          6.43519        2.79341       -1.40580
H          6.23618        4.36669       -0.60998
H          4.75420        3.27517       -2.72779
H          3.74864        4.54330       -0.41396
H          5.34320        0.20364       -0.20947
H          2.36885        2.87200        0.80972
22 22 22 22 22 22 22 22 22 22 22 22 22 22 22 22 22 22 22 22 22 22 22 22 22 22 22 22 22 22 22 22 22 22 22 22 22 22 22 22 22 22 22 22 22 22 22 22 22 22 22 22 22 22 22 22 22 22 22 22 22
[CH](=O)C(C(C(C(CO)O)O)O)=O
InChI=1S/C6H10O6/c7-1-3(9)5(11)6(12)4(10)2-8/h1,4-6,8,10-12H,2H2/t4-,5+,6+/m0/s1
