15
metacyc L-THREO-3-METHYL-ASPARTATE  -351.8036904 -351.8036904 -351.8036904 -351.8036904 -351.8036904 -351.8036904 -351.8036904 -351.8036904 -351.8036904 -351.8036904 -351.8036904 -351.8036904 -351.8036904 -351.8036904 -351.8036904
C          0.83911        0.06611        0.02052
C          2.36283       -0.03029       -0.08332
C          2.91446       -1.46601       -0.18500
N          2.55028       -2.20157        1.05252
C          2.52838       -2.42707       -1.35140
O          1.39990       -2.25456       -1.90251
O          3.36116       -3.36357       -1.58846
C          2.94330        0.90354       -1.16552
O          2.23220        1.90802       -1.47768
O          4.13743        0.67519       -1.51866
H          0.45067       -0.54288        0.84286
H          0.34293       -0.24205       -0.90351
H          0.52627        1.09783        0.21869
H          2.75581        0.39624        0.85340
H          4.01096       -1.41455       -0.18407
15 15 15 15 15 15 15 15 15 15 15 15 15 15 15 15 15 15 15 15 15 15 15 15 15 15 15 15 15 15 15 15 15 15 15 15 15 15 15 15
CC(C([N+])C([O-])=O)C([O-])=O
InChI=1S/C5H9NO4/c1-2(4(7)8)3(6)5(9)10/h2-3H,6H2,1H3,(H,7,8)(H,9,10)/p-1/t2-,3-/m0/s1
