18
metacyc L-XYLONO-14-LACTONE  -406.64731136 -406.64731136 -406.64731136 -406.64731136 -406.64731136 -406.64731136 -406.64731136 -406.64731136 -406.64731136 -406.64731136 -406.64731136 -406.64731136 -406.64731136 -406.64731136 -406.64731136
C          0.95575        0.03347        0.13345
O          0.50349       -0.02122        1.48677
C          2.47582       -0.07337        0.06745
O          3.06490        1.00735        0.81009
C          4.25716        0.56943        1.30774
O          5.15964        1.30534        1.66512
C          4.31531       -0.94774        1.32147
O          5.40191       -1.51617        0.59873
C          3.00159       -1.36037        0.67034
O          3.19598       -2.33674       -0.35804
H          0.61495        0.98406       -0.28915
H          0.48636       -0.78506       -0.42121
H          0.82415        0.78815        1.92305
H          2.78440        0.03289       -0.98045
H          4.34661       -1.28199        2.36699
H          6.08755       -0.82425        0.52147
H          2.32399       -1.78402        1.41893
H          4.16528       -2.49586       -0.39506
18 18 18 18 18 18 18 18 18 18 18 18 18 18 18 18 18 18 18 18 18 18 18 18 18 18 18 18 18 18 18 18 18 18 18 18 18 18 18 18 18 18 18 18 18 18 18 18 18
C(O)C1(OC(=O)C(O)C(O)1)
InChI=1S/C5H8O5/c6-1-2-3(7)4(8)5(9)10-2/h2-4,6-8H,1H2/t2-,3+,4-/m0/s1
