11
metacyc LACTALD  -37.000291888 -37.000291888 -37.000291888 -37.000291888 -37.000291888 -37.000291888 -37.000291888 -37.000291888 -37.000291888 -37.000291888 -37.000291888 -37.000291888 -37.000291888 -37.000291888 -37.000291888
C          1.05086       -0.04265        0.08229
C          2.56851       -0.08920        0.02536
C          3.09246       -1.37871       -0.58884
H          4.19295       -1.46301       -0.61831
O          2.38623       -2.28665       -1.01753
O          3.05695        1.01930       -0.72115
H          0.64938       -0.86796        0.67865
H          0.61643       -0.10467       -0.92192
H          0.71228        0.90381        0.51672
H          2.97973       -0.01966        1.03751
H          2.58044        1.03506       -1.57116
11 11 11 11 11 11 11 11 11 11 11 11 11 11 11 11 11 11 11 11 11 11 11 11 11 11 11 11
CC([CH]=O)O
InChI=1S/C3H6O2/c1-3(5)2-4/h2-3,5H,1H3/t3-/m0/s1
