20
metacyc LYXOSE  -321.4516992 -321.4516992 -321.4516992 -321.4516992 -321.4516992 -321.4516992 -321.4516992 -321.4516992 -321.4516992 -321.4516992 -321.4516992 -321.4516992 -321.4516992 -321.4516992 -321.4516992
C          2.87223        1.21225       -1.01277
H          2.87294        2.23987       -0.61675
O          3.18715        0.98152       -2.18266
C          2.40243        0.13632       -0.04997
O          0.97224        0.14449       -0.04762
C          2.91783       -1.25532       -0.46648
O          2.40130       -1.60602       -1.76022
C          4.44950       -1.34954       -0.40931
O          4.87712       -1.08614        0.93545
C          4.97255       -2.71781       -0.85913
O          6.39613       -2.73209       -0.69995
H          2.74851        0.40236        0.95426
H          0.69659       -0.41391       -0.80244
H          2.49440       -1.98475        0.23529
H          2.66842       -0.89259       -2.38151
H          4.91992       -0.59063       -1.04313
H          5.58801       -1.73054        1.13255
H          4.73044       -2.93401       -1.90416
H          4.57398       -3.51618       -0.22572
H          6.76963       -2.12503       -1.36579
20 20 20 20 20 20 20 20 20 20 20 20 20 20 20 20 20 20 20 20 20 20 20 20 20 20 20 20 20 20 20 20 20 20 20 20 20 20 20 20 20 20 20 20 20 20 20 20 20 20 20 20 20 20 20
[CH](=O)C(O)C(O)C(O)CO
InChI=1S/C5H10O5/c6-1-3(8)5(10)4(9)2-7/h1,3-5,7-10H,2H2/t3-,4-,5-/m1/s1
