13
metacyc MAL  -674.30917184 -674.30917184 -674.30917184 -674.30917184 -674.30917184 -674.30917184 -674.30917184 -674.30917184 -674.30917184 -674.30917184 -674.30917184 -674.30917184 -674.30917184 -674.30917184 -674.30917184
C          0.85307       -0.17502       -0.07293
O          0.24350        0.92743       -0.19648
O          0.36082       -1.34614       -0.11197
C          2.37522       -0.10923        0.00059
C          2.91767        0.76346        1.12391
O          2.66934        0.12009        2.40388
C          4.47352        0.85518        0.93702
O          4.92097        1.78514        0.20895
O          5.11989       -0.01802        1.60899
H          2.71549        0.27816       -0.96908
H          2.77177       -1.12775        0.09344
H          2.47101        1.76252        1.14744
H          3.50115       -0.39482        2.52354
13 13 13 13 13 13 13 13 13 13 13 13 13 13 13 13 13 13 13 13 13 13 13 13 13 13 13 13 13 13 13 13 13 13
C(=O)([O-])CC(O)C([O-])=O
InChI=1S/C4H6O5/c5-2(4(8)9)1-3(6)7/h2,5H,1H2,(H,6,7)(H,8,9)/p-2/t2-/m0/s1
