10
metacyc MALEIMIDE  -99.10490176 -99.10490176 -99.10490176 -99.10490176 -99.10490176 -99.10490176 -99.10490176 -99.10490176 -99.10490176 -99.10490176 -99.10490176 -99.10490176 -99.10490176 -99.10490176 -99.10490176
C          0.93768        0.67210       -0.02935
C         -0.46085        1.11310       -0.01475
N         -1.22494        0.00165       -0.02535
C         -0.45769       -1.10768       -0.01401
C          0.93951       -0.66281       -0.02932
O         -0.81979       -2.26707        0.01183
O         -0.82589        2.27153        0.01073
H          1.77450        1.34744       -0.03395
H         -2.23039        0.00039       -0.00588
H          1.77819       -1.33574       -0.03373
10 10 10 10 10 10 10 10 10 10 10 10 10 10 10 10 10 10 10 10 10 10 10 10 10
C1(C(NC(C=1)=O)=O)
InChI=1S/C4H3NO2/c6-3-1-2-4(7)5-3/h1-2H,(H,5,6,7)
