10
metacyc MALEATE  -523.48542768 -523.48542768 -523.48542768 -523.48542768 -523.48542768 -523.48542768 -523.48542768 -523.48542768 -523.48542768 -523.48542768 -523.48542768 -523.48542768 -523.48542768 -523.48542768 -523.48542768
C          0.87778       -0.03407        0.04704
O          0.29054       -0.54496       -0.94967
O          0.35939        0.49450        1.07827
C          2.41066       -0.03634        0.04262
C          3.18731       -0.53860       -0.93727
C          4.72019       -0.54087       -0.94169
O          5.30743       -0.02998        0.05502
O          5.23858       -1.06945       -1.97293
H          2.89048        0.40875        0.91098
H          2.70749       -0.98370       -1.80563
10 10 10 10 10 10 10 10 10 10 10 10 10 10 10 10 10 10 10 10 10 10 10 10 10
C([O-])(=O)C=CC([O-])=O
InChI=1S/C4H4O4/c5-3(6)1-2-4(7)8/h1-2H,(H,5,6)(H,7,8)/p-2/b2-1-
