12
metacyc MALEAMATE  -253.080047272 -253.080047272 -253.080047272 -253.080047272 -253.080047272 -253.080047272 -253.080047272 -253.080047272 -253.080047272 -253.080047272 -253.080047272 -253.080047272 -253.080047272 -253.080047272 -253.080047272
C          1.01005        0.10188        0.07432
C          0.29368        1.16924        0.45396
C         -1.22804        1.12825        0.43938
O         -1.75255        0.04547        0.05426
O         -1.77649        2.19958        0.82044
C          2.48629        0.11722        0.07978
N          3.03774       -1.05578       -0.33744
O          3.18401        1.06355        0.41637
H          0.50647       -0.80285       -0.24748
H          0.77222        2.08635        0.78016
H          2.48016       -1.84793       -0.61919
H          4.04420       -1.11362       -0.35801
12 12 12 12 12 12 12 12 12 12 12 12 12 12 12 12 12 12 12 12 12 12 12 12 12 12 12 12 12 12 12
C(=CC(=O)[O-])C(N)=O
InChI=1S/C4H5NO3/c5-3(6)1-2-4(7)8/h1-2H,(H2,5,6)(H,7,8)/p-1/b2-1-
