9
metacyc MALONATE  -607.87666584 -607.87666584 -607.87666584 -607.87666584 -607.87666584 -607.87666584 -607.87666584 -607.87666584 -607.87666584 -607.87666584 -607.87666584 -607.87666584 -607.87666584 -607.87666584 -607.87666584
C          1.03297       -0.06493        0.02749
C          0.53078       -0.77828       -1.19665
O          0.44203       -2.04392       -1.11649
O          0.00863       -0.03562       -2.09070
C          2.53268        0.04654        0.08228
O          2.95395        0.52115        1.19494
O          3.24809       -0.27018       -0.90429
H          0.67919       -0.59965        0.91900
H          0.60857        0.94501        0.06951
9 9 9 9 9 9 9 9 9 9 9 9 9 9 9 9 9 9 9 9 9 9
C(C([O-])=O)C([O-])=O
InChI=1S/C3H4O4/c4-2(5)1-3(6)7/h1H2,(H,4,5)(H,6,7)/p-2
