9
metacyc MALONATE-S-ALD  -340.4884808 -340.4884808 -340.4884808 -340.4884808 -340.4884808 -340.4884808 -340.4884808 -340.4884808 -340.4884808 -340.4884808 -340.4884808 -340.4884808 -340.4884808 -340.4884808 -340.4884808
C          1.08646       -0.02681        0.02926
H          0.54216        0.93207        0.01933
O          0.45850       -1.07791        0.18166
C          2.57917        0.03426        0.04164
C          3.07033        1.16883       -0.83181
O          2.35758        2.21100       -0.84222
O          4.16471        0.94816       -1.42256
H          2.97773       -0.92476       -0.30491
H          2.91033        0.21468        1.06847
9 9 9 9 9 9 9 9 9 9 9 9 9 9 9 9 9 9 9 9 9 9
[CH](=O)CC([O-])=O
InChI=1S/C3H4O3/c4-2-1-3(5)6/h2H,1H2,(H,5,6)/p-1
