26
metacyc MANNITOL  -341.59983488 -341.59983488 -341.59983488 -341.59983488 -341.59983488 -341.59983488 -341.59983488 -341.59983488 -341.59983488 -341.59983488 -341.59983488 -341.59983488 -341.59983488 -341.59983488 -341.59983488
C          1.13169       -0.15054       -0.10866
C          0.58020        0.77350        0.99607
C          1.06479        2.24446        0.82957
C          0.55433        3.20951        1.94174
C          1.05276        4.67045        1.78839
C          0.48083        5.58430        2.88651
O          0.96481        6.91601        2.70448
O          2.47853        4.79020        1.83810
O         -0.87278        3.22447        1.99799
O          2.49580        2.24775        0.75471
O         -0.84075        0.65924        1.00874
O          2.55066       -0.23120       -0.10614
H          0.79988        0.18791       -1.09680
H          0.73603       -1.16374        0.02196
H          0.95365        0.40039        1.95765
H          0.68628        2.61411       -0.13195
H          0.92015        2.82942        2.90354
H          0.73938        5.06707        0.81540
H          0.81107        5.25308        3.87637
H         -0.61183        5.61598        2.86881
H          1.89752        6.83016        2.42515
H          2.79054        4.40490        2.67509
H         -1.21861        3.56205        1.15342
H          2.84409        1.98292        1.62544
H         -1.19566        1.05557        0.19625
H          2.88355        0.68675       -0.19116
26 26 26 26 26 26 26 26 26 26 26 26 26 26 26 26 26 26 26 26 26 26 26 26 26 26 26 26 26 26 26 26 26 26 26 26 26 26 26 26 26 26 26 26 26 26 26 26 26 26 26 26 26 26 26 26 26 26 26 26 26 26 26 26 26 26 26 26 26 26 26 26 26
C(C(C(C(C(CO)O)O)O)O)O
InChI=1S/C6H14O6/c7-1-3(9)5(11)6(12)4(10)2-8/h3-12H,1-2H2/t3-,4-,5-,6-/m1/s1
