11
metacyc METHYL-ACETATE  -87.752186784 -87.752186784 -87.752186784 -87.752186784 -87.752186784 -87.752186784 -87.752186784 -87.752186784 -87.752186784 -87.752186784 -87.752186784 -87.752186784 -87.752186784 -87.752186784 -87.752186784
C          1.08590       -0.07023        0.04196
C          2.58119       -0.03690        0.12636
O          3.21039        0.35438        1.09910
O          3.12342       -0.50341       -1.03178
C          4.55148       -0.50829       -1.04138
H          0.66173        0.30634        0.97720
H          0.74570       -1.09827       -0.10547
H          0.74637        0.56929       -0.77663
H          4.88246       -0.89715       -2.00833
H          4.93798       -1.16314       -0.25411
H          4.93929        0.50871       -0.92601
11 11 11 11 11 11 11 11 11 11 11 11 11 11 11 11 11 11 11 11 11 11 11 11 11 11 11 11
CC(=O)OC
InChI=1S/C3H6O2/c1-3(4)5-2/h1-2H3
