14
metacyc METHYLOXALO-ACETATE  -631.25581184 -631.25581184 -631.25581184 -631.25581184 -631.25581184 -631.25581184 -631.25581184 -631.25581184 -631.25581184 -631.25581184 -631.25581184 -631.25581184 -631.25581184 -631.25581184 -631.25581184
C          1.02347       -0.02244       -0.09909
C          2.54172        0.02876        0.01547
C          3.03898        1.35405        0.58751
O          2.21844        2.03153        1.27746
O          4.19510        1.71312        0.20026
C          3.02586       -1.14339        0.84543
O          3.26911       -1.11247        2.05150
C          3.12671       -2.53237        0.16634
O          2.91179       -2.57648       -1.09444
O          3.38284       -3.55135        0.89497
H          0.64776        0.81927       -0.69151
H          0.54239        0.01595        0.88557
H          0.69277       -0.94704       -0.58468
H          2.97300       -0.05800       -0.98972
14 14 14 14 14 14 14 14 14 14 14 14 14 14 14 14 14 14 14 14 14 14 14 14 14 14 14 14 14 14 14 14 14 14 14 14 14
CC(C(=O)[O-])C(=O)C(=O)[O-]
InChI=1S/C5H6O5/c1-2(4(7)8)3(6)5(9)10/h2H,1H3,(H,7,8)(H,9,10)/p-2/t2-/m0/s1
