27
metacyc METHYL-BETA-D-GALACTOSIDE  -250.34679488 -250.34679488 -250.34679488 -250.34679488 -250.34679488 -250.34679488 -250.34679488 -250.34679488 -250.34679488 -250.34679488 -250.34679488 -250.34679488 -250.34679488 -250.34679488 -250.34679488
C          2.97862       -1.23122        0.55876
O          2.24952       -0.20105       -0.09965
C          2.70283       -0.01540       -1.43938
O          2.24305       -1.08352       -2.28920
C          0.81060       -1.07719       -2.46250
C          0.42441       -2.33608       -3.24694
O          0.77607       -3.49843       -2.49803
C          0.39968        0.21179       -3.18395
O          1.11401        0.38386       -4.42808
C          0.76271        1.40106       -2.28041
O          0.42090        2.62451       -2.94100
C          2.26908        1.37943       -1.95347
O          3.03302        1.72703       -3.12697
H          2.60399       -1.31799        1.58169
H          4.04383       -0.98076        0.60207
H          2.83802       -2.19123        0.05297
H          3.79850       -0.05073       -1.46417
H          0.33745       -1.14269       -1.47444
H          0.95091       -2.40558       -4.20191
H         -0.65455       -2.36687       -3.43681
H          1.71468       -3.38329       -2.25501
H         -0.67398        0.22431       -3.41913
H          1.35380       -0.48819       -4.78483
H          0.18128        1.35569       -1.35470
H          1.00095        2.66412       -3.72959
H          2.48745        2.15077       -1.20646
H          2.72051        1.13931       -3.84420
27 27 27 27 27 27 27 27 27 27 27 27 27 27 27 27 27 27 27 27 27 27 27 27 27 27 27 27 27 27 27 27 27 27 27 27 27 27 27 27 27 27 27 27 27 27 27 27 27 27 27 27 27 27 27 27 27 27 27 27 27 27 27 27 27 27 27 27 27 27 27 27 27 27 27 27
COC1(OC(CO)C(O)C(O)C(O)1)
InChI=1S/C7H14O6/c1-12-7-6(11)5(10)4(9)3(2-8)13-7/h3-11H,2H2,1H3/t3-,4+,5+,6-,7-/m1/s1
