6
metacyc METOH  -3.49580383928 -3.49580383928 -3.49580383928 -3.49580383928 -3.49580383928 -3.49580383928 -3.49580383928 -3.49580383928 -3.49580383928 -3.49580383928 -3.49580383928 -3.49580383928 -3.49580383928 -3.49580383928 -3.49580383928
C          1.03315        0.07780       -0.06417
O          2.44884        0.07456       -0.05399
H          0.67173       -0.62095       -0.82263
H          0.67173        1.08611       -0.28053
H          0.67000       -0.23408        0.91790
H          2.74161        0.35521       -0.93772
6 6 6 6 6 6 6 6 6 6 6 6 6
CO
InChI=1S/CH4O/c1-2/h2H,1H3
