21
metacyc MEVALONATE  -188.697324712 -188.697324712 -188.697324712 -188.697324712 -188.697324712 -188.697324712 -188.697324712 -188.697324712 -188.697324712 -188.697324712 -188.697324712 -188.697324712 -188.697324712 -188.697324712 -188.697324712
C          0.87048       -0.16686       -0.00234
C          2.39709       -0.01380       -0.04259
O          2.63663        0.87848       -1.16242
C          2.89914        0.70571        1.23996
C          4.41331        0.90357        1.32318
O          4.77992        1.64065        2.48887
C          3.08783       -1.34357       -0.34664
C          2.97218       -2.49036        0.66281
O          2.33912       -2.25078        1.72582
O          3.55288       -3.55384        0.30641
H          0.38547        0.81619        0.00600
H          0.52471       -0.72636        0.86365
H          0.51534       -0.67312       -0.90907
H          3.58135        1.09547       -1.17715
H          2.56592        0.18120        2.13903
H          2.43095        1.69691        1.28767
H          4.78569        1.47083        0.46655
H          4.94878       -0.05014        1.35198
H          3.99439        2.12908        2.78673
H          4.15984       -1.17283       -0.52553
H          2.71113       -1.72632       -1.30423
21 21 21 21 21 21 21 21 21 21 21 21 21 21 21 21 21 21 21 21 21 21 21 21 21 21 21 21 21 21 21 21 21 21 21 21 21 21 21 21 21 21 21 21 21 21 21 21 21 21 21 21 21 21 21 21 21 21
CC(O)(CCO)CC(=O)[O-]
InChI=1S/C6H12O4/c1-6(10,2-3-7)4-5(8)9/h7,10H,2-4H2,1H3,(H,8,9)/p-1/t6-/m1/s1
