19
metacyc MONOMETHYL-ESTER-OF-TRANS-ACONITATE  -660.03240152 -660.03240152 -660.03240152 -660.03240152 -660.03240152 -660.03240152 -660.03240152 -660.03240152 -660.03240152 -660.03240152 -660.03240152 -660.03240152 -660.03240152 -660.03240152 -660.03240152
C          1.03127       -0.23090        0.61166
O          2.45211       -0.31520        0.60098
C          3.08931        0.84934        0.84450
O          2.52168        1.88470        1.17377
C          4.57586        0.69524        0.76314
C          5.23671       -0.29230       -0.17537
C          4.35824       -1.11845       -1.10924
O          4.18074       -2.33282       -0.78384
O          3.94568       -0.52700       -2.15452
C          5.26441        1.51764        1.58958
C          6.76660        1.68443        1.81028
O          7.55488        0.98133        1.12530
O          7.05197        2.54832        2.69556
H          0.62704       -1.15314        0.18380
H          0.66738        0.60895        0.01275
H          0.67778       -0.14594        1.64480
H          5.84051       -0.98834        0.42203
H          5.92900        0.26039       -0.81935
H          4.70673        2.20188        2.22695
19 19 19 19 19 19 19 19 19 19 19 19 19 19 19 19 19 19 19 19 19 19 19 19 19 19 19 19 19 19 19 19 19 19 19 19 19 19 19 19 19 19 19 19 19 19 19 19 19 19 19 19
COC(=O)C(CC(=O)[O-])=CC(=O)[O-]
InChI=1S/C7H8O6/c1-13-7(12)4(2-5(8)9)3-6(10)11/h2H,3H2,1H3,(H,8,9)(H,10,11)/p-2/b4-2+
