24
metacyc MYO-INOSITOL  -404.620272144 -404.620272144 -404.620272144 -404.620272144 -404.620272144 -404.620272144 -404.620272144 -404.620272144 -404.620272144 -404.620272144 -404.620272144 -404.620272144 -404.620272144 -404.620272144 -404.620272144
C          0.62539        1.25480       -0.22100
C         -0.86431        1.26248        0.17794
C         -1.58482       -0.02433       -0.27586
C         -0.86030       -1.28764        0.22422
C          0.61759       -1.28225       -0.20488
C          1.33657       -0.00943        0.28400
O          1.33098       -0.02218        1.72433
O          1.28649       -2.43445        0.31475
O         -0.99130       -1.36030        1.65967
O         -2.92866       -0.04169        0.22135
O         -1.48770        2.42231       -0.38898
O          0.75863        1.43518       -1.63940
H          1.09445        2.13751        0.22993
H         -0.96119        1.36758        1.26464
H         -1.65776       -0.03600       -1.36929
H         -1.36269       -2.18393       -0.15564
H          0.67780       -1.35067       -1.29632
H          2.38252       -0.03769       -0.04512
H          1.87854        0.73141        2.02053
H          1.22285       -2.37893        1.28787
H         -0.23104       -0.88626        2.05890
H         -2.86956       -0.33214        1.15344
H         -1.13288        2.52035       -1.29287
H          0.57266        0.60952       -2.11778
24 24 24 24 24 24 24 24 24 24 24 24 24 24 24 24 24 24 24 24 24 24 24 24 24 24 24 24 24 24 24 24 24 24 24 24 24 24 24 24 24 24 24 24 24 24 24 24 24 24 24 24 24 24 24 24 24 24 24 24 24 24 24 24 24 24 24
C1(C(C(C(C(C1O)O)O)O)O)O
InChI=1S/C6H12O6/c7-1-2(8)4(10)6(12)5(11)3(1)9/h1-12H/t1-,2-,3-,4+,5-,6-
