30
metacyc N-ACETYL-D-GLUCOSAMINE  -245.028453904 -245.028453904 -245.028453904 -245.028453904 -245.028453904 -245.028453904 -245.028453904 -245.028453904 -245.028453904 -245.028453904 -245.028453904 -245.028453904 -245.028453904 -245.028453904 -245.028453904
C          1.00993       -0.38415        0.66605
C          2.51392       -0.30043        0.74824
O          3.09773        0.50729        1.46228
N          3.16188       -1.22922       -0.03332
C          4.63324       -1.24540       -0.12951
C          5.14329       -2.65360       -0.50753
O          4.60247       -3.62907        0.37303
O          4.77504       -3.00744       -1.83798
C          5.28851       -2.11441       -2.84915
C          6.80618       -2.29992       -3.04766
O          7.08630       -3.65130       -3.41856
C          4.83080       -0.66889       -2.58165
O          5.38994        0.24416       -3.52714
C          5.15993       -0.21973       -1.14845
O          6.58769       -0.07217       -1.06151
H          0.56574        0.47991        1.16900
H          0.66696       -1.29860        1.15845
H          0.68728       -0.38211       -0.37910
H          2.63008       -1.71482       -0.74894
H          5.01855       -1.00304        0.86840
H          6.23001       -2.70907       -0.39657
H          3.68884       -3.35174        0.55580
H          4.81916       -2.44269       -3.78495
H          7.38396       -2.10467       -2.14208
H          7.18570       -1.64912       -3.84055
H          6.56735       -4.21939       -2.81842
H          3.74202       -0.63128       -2.70821
H          6.23431        0.55611       -3.14229
H          4.73670        0.77522       -0.96824
H          6.83836       -0.02305       -0.12036
30 30 30 30 30 30 30 30 30 30 30 30 30 30 30 30 30 30 30 30 30 30 30 30 30 30 30 30 30 30 30 30 30 30 30 30 30 30 30 30 30 30 30 30 30 30 30 30 30 30 30 30 30 30 30 30 30 30 30 30 30 30 30 30 30 30 30 30 30 30 30 30 30 30 30 30 30 30 30 30 30 30 30 30 30
CC(=O)NC1(C(O)OC(CO)C(O)C(O)1)
InChI=1S/C8H15NO6/c1-3(11)9-5-7(13)6(12)4(2-10)15-8(5)14/h4-8,10,12-14H,2H2,1H3,(H,9,11)/t4-,5-,6-,7-,8-/m1/s1
