21
metacyc N-ACETYLANTHRANILATE  -21.016625296 -21.016625296 -21.016625296 -21.016625296 -21.016625296 -21.016625296 -21.016625296 -21.016625296 -21.016625296 -21.016625296 -21.016625296 -21.016625296 -21.016625296 -21.016625296 -21.016625296
C          0.94372       -0.51454       -1.97166
C          2.39852       -0.81391       -2.21953
O          2.72544       -1.38453       -3.25990
N          3.23432       -0.37274       -1.21968
C          4.63638       -0.53959       -1.12224
C          5.32256       -1.43846       -1.95039
C          6.70550       -1.59085       -1.86010
C          7.42630       -0.85155       -0.92935
C          6.75468        0.03094       -0.08280
C          5.35599        0.20099       -0.15398
C          4.68555        1.18768        0.79154
O          5.43067        1.84196        1.58521
O          3.41281        1.28538        0.72099
H          0.35551       -1.38810       -2.27319
H          0.64605        0.34552       -2.57682
H          0.73759       -0.31375       -0.91835
H          2.86188        0.26958       -0.49911
H          4.79479       -2.05158       -2.67239
H          7.21376       -2.28592       -2.51980
H          8.50357       -0.95809       -0.85707
H          7.32114        0.60741        0.64791
21 21 21 21 21 21 21 21 21 21 21 21 21 21 21 21 21 21 21 21 21 21 21 21 21 21 21 21 21 21 21 21 21 21 21 21 21 21 21 21 21 21 21 21 21 21 21 21 21 21 21 21 21 21 21 21 21 21
CC(=O)NC1(C=CC=CC(C(=O)[O-])=1)
InChI=1S/C9H9NO3/c1-6(11)10-8-5-3-2-4-7(8)9(12)13/h2-5H,1H3,(H,10,11)(H,12,13)/p-1
