30
metacyc N-ACETYL-D-MANNOSAMINE  -245.028453904 -245.028453904 -245.028453904 -245.028453904 -245.028453904 -245.028453904 -245.028453904 -245.028453904 -245.028453904 -245.028453904 -245.028453904 -245.028453904 -245.028453904 -245.028453904 -245.028453904
C          0.82141        0.30131        1.89424
C          2.29918        0.31461        2.15747
O          2.78201        0.10556        3.26187
N          3.05757        0.56204        1.03550
C          4.53506        0.65834        1.07171
C          5.21274       -0.68402        0.68896
O          4.77082       -1.76726        1.48795
O          4.97523       -1.02274       -0.67766
C          5.47661       -0.07098       -1.62376
C          7.00473       -0.17080       -1.79358
O          7.51785        0.78125       -2.71494
C          4.89684        1.33143       -1.35256
O          5.40427        2.32299       -2.23887
C          5.02500        1.76965        0.11737
O          6.35654        2.21112        0.41304
H          0.28040        0.09861        2.82460
H          0.57577       -0.47958        1.16815
H          0.50132        1.27549        1.50983
H          2.59257        0.52678        0.13647
H          4.82505        0.90219        2.10149
H          6.29121       -0.61387        0.85934
H          3.82945       -1.61430        1.67301
H          5.06657       -0.37415       -2.59667
H          7.27547       -1.17391       -2.14302
H          7.53529       -0.03157       -0.84999
H          7.05972        0.65465       -3.56940
H          3.82291        1.26624       -1.56613
H          6.35512        2.43483       -2.02797
H          4.40613        2.66424        0.25799
H          6.97298        1.46737        0.49414
30 30 30 30 30 30 30 30 30 30 30 30 30 30 30 30 30 30 30 30 30 30 30 30 30 30 30 30 30 30 30 30 30 30 30 30 30 30 30 30 30 30 30 30 30 30 30 30 30 30 30 30 30 30 30 30 30 30 30 30 30 30 30 30 30 30 30 30 30 30 30 30 30 30 30 30 30 30 30 30 30 30 30 30 30
CC(=O)NC1(C(O)OC(CO)C(O)C(O)1)
InChI=1S/C8H15NO6/c1-3(11)9-5-7(13)6(12)4(2-10)15-8(5)14/h4-8,10,12-14H,2H2,1H3,(H,9,11)/t4-,5+,6-,7-,8-/m1/s1
