21
metacyc N-CARBAMYL-L-GLUTAMATE  -508.01822568 -508.01822568 -508.01822568 -508.01822568 -508.01822568 -508.01822568 -508.01822568 -508.01822568 -508.01822568 -508.01822568 -508.01822568 -508.01822568 -508.01822568 -508.01822568 -508.01822568
C         -0.61691        0.49742       -1.33531
C          0.30802        1.23021       -0.35891
C          1.15022        2.38452       -0.89847
C          0.37215        3.66698       -1.26013
C         -0.27777        4.36245        0.00174
O          0.48468        4.43528        1.02133
O         -1.40430        4.90809       -0.16355
N          1.36364        4.60187       -1.87555
C          1.02989        5.46399       -2.87424
O          0.01528        5.49091       -3.55382
N          2.04320        6.33387       -3.15181
O         -0.26556        0.49230       -2.54866
O         -1.58426       -0.11428       -0.79084
H          1.00258        0.45896        0.00160
H         -0.26250        1.56008        0.51660
H          1.70544        2.04255       -1.78240
H          1.92007        2.62205       -0.15073
H         -0.40263        3.44446       -1.99901
H          1.97188        4.97231       -1.16497
H          2.70050        6.53640       -2.41718
H          1.77148        7.07779       -3.77307
21 21 21 21 21 21 21 21 21 21 21 21 21 21 21 21 21 21 21 21 21 21 21 21 21 21 21 21 21 21 21 21 21 21 21 21 21 21 21 21 21 21 21 21 21 21 21 21 21 21 21 21 21 21 21 21 21 21
C(CCC(C(=O)[O-])NC(=O)N)([O-])=O
InChI=1S/C6H10N2O5/c7-6(13)8-3(5(11)12)1-2-4(9)10/h3H,1-2H2,(H,9,10)(H,11,12)(H3,7,8,13)/p-2/t3-/m0/s1
