13
metacyc N-CARBAMOYLGLYCINE  -313.36678864 -313.36678864 -313.36678864 -313.36678864 -313.36678864 -313.36678864 -313.36678864 -313.36678864 -313.36678864 -313.36678864 -313.36678864 -313.36678864 -313.36678864 -313.36678864 -313.36678864
C          0.88862       -0.00316       -0.02967
N          0.26923       -0.73407       -1.13694
C         -1.06042       -0.86338       -1.33110
O         -1.94381       -0.40109       -0.62206
N         -1.36019       -1.58408       -2.43747
C          2.43792       -0.03966       -0.08045
O          3.03169        0.57573        0.84804
O          2.91547       -0.69127       -1.06218
H          0.53626       -0.44854        0.90645
H          0.53922        1.03329       -0.07575
H          0.95865       -1.14356       -1.75912
H         -0.63411       -1.99048       -3.00271
H         -2.33254       -1.74205       -2.64644
13 13 13 13 13 13 13 13 13 13 13 13 13 13 13 13 13 13 13 13 13 13 13 13 13 13 13 13 13 13 13 13 13 13
C(NC(=O)N)C(=O)[O-]
InChI=1S/C3H6N2O3/c4-3(8)5-1-2(6)7/h1H2,(H,6,7)(H3,4,5,8)/p-1
