19
metacyc N-FORMIMINO-L-GLUTAMATE  -272.59584248 -272.59584248 -272.59584248 -272.59584248 -272.59584248 -272.59584248 -272.59584248 -272.59584248 -272.59584248 -272.59584248 -272.59584248 -272.59584248 -272.59584248 -272.59584248 -272.59584248
C          1.22801        0.36975        0.77874
H          1.07363       -0.03131        1.78985
N          0.41221        1.14140        0.23231
N          2.36849        0.02153        0.13427
C          3.11562       -1.21166        0.47252
C          2.66869       -2.35187       -0.51132
O          2.69924       -2.05723       -1.74736
O          2.24897       -3.41683        0.03717
C          4.62497       -0.95114        0.34088
C          5.13549        0.05072        1.38595
C          6.63310        0.36683        1.38909
O          7.35936       -0.24801        0.56204
O          6.98414        1.22616        2.25714
H          2.37682        0.14945       -0.88023
H          2.88913       -1.51961        1.50093
H          4.86280       -0.57795       -0.66496
H          5.16731       -1.89845        0.45333
H          4.88449       -0.32256        2.38680
H          4.61046        1.00518        1.25928
19 19 19 19 19 19 19 19 19 19 19 19 19 19 19 19 19 19 19 19 19 19 19 19 19 19 19 19 19 19 19 19 19 19 19 19 19 19 19 19 19 19 19 19 19 19 19 19 19 19 19 19
[CH](=[N+])NC(C([O-])=O)CCC([O-])=O
InChI=1S/C6H10N2O4/c7-3-8-4(6(11)12)1-2-5(9)10/h3-4H,1-2H2,(H2,7,8)(H,9,10)(H,11,12)/p-1/t4-/m0/s1
