11
metacyc N-FORMIMINO-GLYCINE  -80.555710968 -80.555710968 -80.555710968 -80.555710968 -80.555710968 -80.555710968 -80.555710968 -80.555710968 -80.555710968 -80.555710968 -80.555710968 -80.555710968 -80.555710968 -80.555710968 -80.555710968
C          0.93736        0.00653        0.13427
N          0.20563       -0.11120        1.25972
C         -1.25223       -0.11881        1.34023
C         -1.74507       -0.26924        2.80564
O         -0.82932       -0.35899        3.68078
O         -3.00192       -0.28410        2.95039
N          2.18447        0.00148        0.19455
H          0.39036        0.10450       -0.81392
H          0.63027       -0.20621        2.18977
H         -1.64828       -0.95325        0.75166
H         -1.64756        0.81829        0.93390
11 11 11 11 11 11 11 11 11 11 11 11 11 11 11 11 11 11 11 11 11 11 11 11 11 11 11 11
C(NCC([O-])=O)=[N+]
InChI=1S/C3H6N2O2/c4-2-5-1-3(6)7/h2H,1H2,(H2,4,5)(H,6,7)
