27
metacyc N2-SUCCINYLGLUTAMATE  -711.43614688 -711.43614688 -711.43614688 -711.43614688 -711.43614688 -711.43614688 -711.43614688 -711.43614688 -711.43614688 -711.43614688 -711.43614688 -711.43614688 -711.43614688 -711.43614688 -711.43614688
C          0.96624       -0.40065       -0.98186
C          2.45534       -0.13590       -0.79539
C          2.83590        0.09537        0.66266
C          4.33367        0.24354        0.92705
O          5.10930        0.16485       -0.06999
O          4.64286        0.42170        2.14318
N          0.15329        0.66381       -0.64785
C         -1.30064        0.70915       -0.97878
C         -2.01846        1.59373        0.06860
C         -3.54586        1.62078       -0.06669
C         -4.34320        2.43216        0.96640
O         -3.69419        3.01188        1.88225
O         -5.60225        2.41668        0.79673
C         -1.55492        1.27019       -2.42785
O         -0.95718        2.35963       -2.69978
O         -2.28954        0.56509       -3.18421
O          0.55896       -1.48835       -1.38951
H          2.74119        0.72079       -1.41732
H          2.99658       -1.00455       -1.19101
H          2.47370       -0.74556        1.26710
H          2.33371        0.99540        1.04058
H          0.58755        1.57797       -0.70954
H         -1.68618       -0.31664       -0.92202
H         -1.63075        2.61984        0.02201
H         -1.76240        1.22528        1.07126
H         -3.92197        0.59114       -0.02259
H         -3.81348        2.02100       -1.05184
27 27 27 27 27 27 27 27 27 27 27 27 27 27 27 27 27 27 27 27 27 27 27 27 27 27 27 27 27 27 27 27 27 27 27 27 27 27 27 27 27 27 27 27 27 27 27 27 27 27 27 27 27 27 27 27 27 27 27 27 27 27 27 27 27 27 27 27 27 27 27 27 27 27 27 27
C(CCC(=O)[O-])(NC(CCC(=O)[O-])C(=O)[O-])=O
InChI=1S/C9H13NO7/c11-6(2-4-8(14)15)10-5(9(16)17)1-3-7(12)13/h5H,1-4H2,(H,10,11)(H,12,13)(H,14,15)(H,16,17)/p-3/t5-/m0/s1
