28
metacyc N2-SUCCINYLORNITHINE  -157.80064784 -157.80064784 -157.80064784 -157.80064784 -157.80064784 -157.80064784 -157.80064784 -157.80064784 -157.80064784 -157.80064784 -157.80064784 -157.80064784 -157.80064784 -157.80064784 -157.80064784
C          1.13718       -2.32858       -0.01310
C          0.42561       -1.19826        0.72505
C         -1.09908       -1.37604        0.77699
C         -1.59825       -2.65953        1.46315
C         -1.16613       -2.59137        2.96447
O         -1.95989       -1.96099        3.72289
O         -0.04737       -3.12278        3.23327
N         -3.06152       -2.75663        1.27448
C         -3.69345       -3.96902        1.09310
O         -3.10600       -5.04051        0.95910
C         -5.20321       -3.86363        0.98916
C         -5.60689       -3.16874       -0.30475
C         -7.10738       -3.11052       -0.57153
O         -7.86360       -3.62757        0.29722
O         -7.42259       -2.54049       -1.65744
N          2.56692       -2.04231       -0.11477
H          0.73221       -2.42873       -1.02553
H          1.00688       -3.28670        0.49646
H          0.63570       -0.24649        0.21890
H          0.82828       -1.09538        1.73943
H         -1.48361       -1.34784       -0.25183
H         -1.52952       -0.49804        1.27789
H         -1.14922       -3.54134        0.99587
H         -3.57941       -2.07689        1.82227
H         -5.59020       -3.32899        1.86434
H         -5.61536       -4.87932        1.02804
H         -5.13539       -3.68100       -1.15393
H         -5.22869       -2.13942       -0.30939
28 28 28 28 28 28 28 28 28 28 28 28 28 28 28 28 28 28 28 28 28 28 28 28 28 28 28 28 28 28 28 28 28 28 28 28 28 28 28 28 28 28 28 28 28 28 28 28 28 28 28 28 28 28 28 28 28 28 28 28 28 28 28 28 28 28 28 28 28 28 28 28 28 28 28 28 28 28 28
C(CCC(C([O-])=O)NC(=O)CCC([O-])=O)[N+]
InChI=1S/C9H16N2O5/c10-5-1-2-6(9(15)16)11-7(12)3-4-8(13)14/h6H,1-5,10H2,(H,11,12)(H,13,14)(H,15,16)/p-1/t6-/m0/s1
