16
metacyc N3-OXALYL-L-23-DIAMINOPROPANOATE  -518.41529832 -518.41529832 -518.41529832 -518.41529832 -518.41529832 -518.41529832 -518.41529832 -518.41529832 -518.41529832 -518.41529832 -518.41529832 -518.41529832 -518.41529832 -518.41529832 -518.41529832
C          0.99000       -0.15625       -0.06588
N          0.42665       -0.26760       -1.40567
C          0.07615       -1.45915       -2.02091
O          0.13497       -2.56566       -1.48623
C         -0.44480       -1.39969       -3.50342
O         -0.52751       -0.21744       -3.98587
O         -0.74337       -2.48463       -4.10180
C          2.51621       -0.16614       -0.04553
N          3.05544        1.01214       -0.74475
C          3.04897       -0.09932        1.40378
O          2.31609        0.47832        2.26278
O          4.18153       -0.64176        1.59503
H          0.60143       -0.98398        0.53899
H          0.58849        0.77368        0.35472
H          0.39212        0.53741       -2.02719
H          2.89390       -1.07105       -0.53446
16 16 16 16 16 16 16 16 16 16 16 16 16 16 16 16 16 16 16 16 16 16 16 16 16 16 16 16 16 16 16 16 16 16 16 16 16 16 16 16 16 16 16
C(NC(=O)C([O-])=O)C([N+])C([O-])=O
InChI=1S/C5H8N2O5/c6-2(4(9)10)1-7-3(8)5(11)12/h2H,1,6H2,(H,7,8)(H,9,10)(H,11,12)/p-1/t2-/m0/s1
