3
metacyc NITRITE  -275.77605904 -275.77605904 -275.77605904 -275.77605904 -275.77605904 -275.77605904 -275.77605904 -275.77605904 -275.77605904 -275.77605904 -275.77605904 -275.77605904 -275.77605904 -275.77605904 -275.77605904
N          0.88168        0.00632       -0.05846
O          0.33434       -0.30927       -1.23554
O          2.21554       -0.01291       -0.13019
3 3 3 3
N([O-])=O
InChI=1S/HNO2/c2-1-3/h(H,2,3)/p-1
