3
metacyc NITROUS-OXIDE  -271.5416 -271.5416 -271.5416 -271.5416 -271.5416 -271.5416 -271.5416 -271.5416 -271.5416 -271.5416 -271.5416 -271.5416 -271.5416 -271.5416 -271.5416
N          1.02748        0.08072       -0.03186
N          2.13948        0.08072       -0.03186
O          3.35540        0.08072       -0.03186
3 3 3 3
N#N=O
InChI=1S/N2O/c1-2-3
