4
metacyc NITRATE  -112.64189904 -112.64189904 -112.64189904 -112.64189904 -112.64189904 -112.64189904 -112.64189904 -112.64189904 -112.64189904 -112.64189904 -112.64189904 -112.64189904 -112.64189904 -112.64189904 -112.64189904
N          0.99862       -0.06280       -0.06845
O          0.37753        0.72293       -0.80323
O          0.37753       -0.84852        0.66633
O          2.24080       -0.06280       -0.06845
4 4 4 4 4 4 4
N(=O)(=O)[O-]
InChI=1S/NO3/c2-1(3)4/q-1
