24
metacyc O-SUCCINYL-L-HOMOSERINE  -473.83226792 -473.83226792 -473.83226792 -473.83226792 -473.83226792 -473.83226792 -473.83226792 -473.83226792 -473.83226792 -473.83226792 -473.83226792 -473.83226792 -473.83226792 -473.83226792 -473.83226792
C          0.82203       -0.87206       -0.34858
C          0.20667       -0.23639       -1.59022
C         -1.14071        0.38902       -1.29716
O         -1.64045        0.52218       -0.18758
O         -1.74437        0.74648       -2.46982
C         -3.16144        0.98267       -2.41428
C         -3.51596        2.46295       -2.51778
C         -3.08121        3.10970       -3.83442
C         -3.71796        2.50360       -5.11215
O         -4.83080        1.91351       -4.95554
O         -3.04881        2.65085       -6.17741
N         -3.48853        4.52502       -3.80720
C          2.12992       -1.61906       -0.59420
O          2.63441       -2.14082        0.44341
O          2.55981       -1.63857       -1.77880
H          0.11121       -1.58249        0.09234
H          1.00876       -0.09800        0.40594
H          0.05281       -1.00880       -2.35389
H          0.87019        0.53348       -1.99714
H         -3.59596        0.56893       -1.49612
H         -3.60365        0.41281       -3.23531
H         -3.04610        2.99988       -1.68282
H         -4.60310        2.56310       -2.38898
H         -1.98872        3.07170       -3.92279
24 24 24 24 24 24 24 24 24 24 24 24 24 24 24 24 24 24 24 24 24 24 24 24 24 24 24 24 24 24 24 24 24 24 24 24 24 24 24 24 24 24 24 24 24 24 24 24 24 24 24 24 24 24 24 24 24 24 24 24 24 24 24 24 24 24 24
C(CC(=O)OCCC(C([O-])=O)[N+])C([O-])=O
InChI=1S/C8H13NO6/c9-5(8(13)14)3-4-15-7(12)2-1-6(10)11/h5H,1-4,9H2,(H,10,11)(H,13,14)/p-1/t5-/m0/s1
