20
metacyc O-UREIDOHOMOSERINE  -149.400949856 -149.400949856 -149.400949856 -149.400949856 -149.400949856 -149.400949856 -149.400949856 -149.400949856 -149.400949856 -149.400949856 -149.400949856 -149.400949856 -149.400949856 -149.400949856 -149.400949856
C          0.97901        0.00592       -0.00328
C          0.44317        1.04732       -0.98027
C          0.75622        0.70122       -2.43715
C          0.12871       -0.63126       -2.91121
O         -0.90897       -1.01183       -2.29213
O          0.76438       -1.23154       -3.82762
N          0.21023        1.76028       -3.29881
O          2.40999       -0.01301       -0.06401
N          2.86812       -1.01267        0.81891
C          3.79219       -0.69822        1.75925
N          4.15761        0.60570        1.77891
O          4.26260       -1.50971        2.54872
H          0.58578       -0.99395       -0.21401
H          0.67897        0.28358        1.01437
H          0.89583        2.01889       -0.74075
H         -0.63879        1.14912       -0.82742
H          1.84092        0.66136       -2.58759
H          2.58990       -1.97085        0.64438
H          3.66663        1.23389        1.15809
H          4.77997        0.94131        2.49488
20 20 20 20 20 20 20 20 20 20 20 20 20 20 20 20 20 20 20 20 20 20 20 20 20 20 20 20 20 20 20 20 20 20 20 20 20 20 20 20 20 20 20 20 20 20 20 20 20 20 20 20 20 20 20
C(CC(C(=O)[O-])[N+])ONC(N)=O
InChI=1S/C5H11N3O4/c6-3(4(9)10)1-2-12-8-5(7)11/h3H,1-2,6H2,(H,9,10)(H3,7,8,11)/t3-/m0/s1
