15
metacyc OH-CH3-SER  -290.99682344 -290.99682344 -290.99682344 -290.99682344 -290.99682344 -290.99682344 -290.99682344 -290.99682344 -290.99682344 -290.99682344 -290.99682344 -290.99682344 -290.99682344 -290.99682344 -290.99682344
C          0.96062        0.02650        0.05465
O          0.38549        1.33012       -0.07823
C          2.48995        0.05212        0.08193
N          2.97610       -1.33465        0.14155
C          3.06049        0.69849       -1.20405
O          4.32446        0.81692       -1.24922
O          2.20355        1.11988       -2.04054
C          3.02542        0.88454        1.25369
O          4.44846        0.79894        1.42021
H          0.57888       -0.58548       -0.77194
H          0.56536       -0.40388        0.98188
H          0.74762        1.64155       -0.94687
H          2.58119        0.54876        2.19791
H          2.77724        1.94562        1.13527
H          4.80663        0.83003        0.49574
15 15 15 15 15 15 15 15 15 15 15 15 15 15 15 15 15 15 15 15 15 15 15 15 15 15 15 15 15 15 15 15 15 15 15 15 15 15 15 15
C(O)C([N+])(C(=O)[O-])CO
InChI=1S/C4H9NO4/c5-4(1-6,2-7)3(8)9/h6-7H,1-2,5H2,(H,8,9)
