10
metacyc OH-PYR  -495.46388264 -495.46388264 -495.46388264 -495.46388264 -495.46388264 -495.46388264 -495.46388264 -495.46388264 -495.46388264 -495.46388264 -495.46388264 -495.46388264 -495.46388264 -495.46388264 -495.46388264
C          1.00340        0.08681       -0.12532
C          0.56285        0.54985        1.24258
O          1.35820        0.93873        2.10400
C         -0.93147        0.55371        1.53676
O         -1.66643        0.16541        0.57305
O         -1.31768        0.93702        2.68381
O          2.43004        0.14527       -0.24577
H          0.57479        0.73951       -0.89018
H          0.69099       -0.94778       -0.28807
H          2.72321        0.63938        0.54808
10 10 10 10 10 10 10 10 10 10 10 10 10 10 10 10 10 10 10 10 10 10 10 10 10
C(C(=O)C([O-])=O)O
InChI=1S/C3H4O4/c4-1-2(5)3(6)7/h4H,1H2,(H,6,7)/p-1
