14
metacyc OROTATE  -511.321175696 -511.321175696 -511.321175696 -511.321175696 -511.321175696 -511.321175696 -511.321175696 -511.321175696 -511.321175696 -511.321175696 -511.321175696 -511.321175696 -511.321175696 -511.321175696 -511.321175696
C         -0.65132        1.24155        0.00215
C          0.68644        1.20361        0.00138
C          1.52363        2.52055        0.00097
O          2.77509        2.31382        0.00020
O          0.87127        3.59944        0.00149
N          1.34027       -0.01410        0.00084
C          0.71517       -1.22321        0.00148
N         -0.65221       -1.17244        0.00279
C         -1.40029       -0.02730        0.00248
O         -2.62800       -0.05012        0.00238
O          1.31612       -2.29440        0.00086
H         -1.21285        2.16722        0.00250
H          2.35826        0.03859        0.00001
H         -1.14262       -2.04879        0.00297
14 14 14 14 14 14 14 14 14 14 14 14 14 14 14 14 14 14 14 14 14 14 14 14 14 14 14 14 14 14 14 14 14 14 14 14 14
C1(=C(C([O-])=O)NC(NC(=O)1)=O)
InChI=1S/C5H4N2O4/c8-3-1-2(4(9)10)6-5(11)7-3/h1H,(H,9,10)(H2,6,7,8,11)/p-1
