19
metacyc OXALO-GLUTARATE  -913.67238096 -913.67238096 -913.67238096 -913.67238096 -913.67238096 -913.67238096 -913.67238096 -913.67238096 -913.67238096 -913.67238096 -913.67238096 -913.67238096 -913.67238096 -913.67238096 -913.67238096
C          1.04090        0.01120       -0.24276
C          0.43377       -0.68684        0.98646
C         -1.09725       -0.73717        1.13040
O         -1.79547       -0.17687        0.23861
O         -1.51553       -1.33881        2.17008
C          2.58797        0.06476       -0.21781
C          3.18363       -1.32771       -0.38305
C          4.13657       -1.90618        0.69682
O          4.34081       -1.21005        1.75041
O          4.63227       -3.07389        0.50178
O          2.92013       -2.07708       -1.33150
C          3.25147        0.97948       -1.26051
O          2.48665        1.63302       -2.03511
O          4.51617        1.07557       -1.20756
H          0.64455        1.03333       -0.29068
H          0.69547       -0.49471       -1.15240
H          0.81470       -0.19310        1.88994
H          0.78944       -1.72419        1.01854
H          2.88795        0.47094        0.75805
19 19 19 19 19 19 19 19 19 19 19 19 19 19 19 19 19 19 19 19 19 19 19 19 19 19 19 19 19 19 19 19 19 19 19 19 19 19 19 19 19 19 19 19 19 19 19 19 19 19 19 19
C(CC(=O)[O-])C(C(C(=O)[O-])=O)C(=O)[O-]
InChI=1S/C7H8O7/c8-4(9)2-1-3(6(11)12)5(10)7(13)14/h3H,1-2H2,(H,8,9)(H,11,12)(H,13,14)/p-3
