16
metacyc OXALO-SUCCINATE  -1021.7127168 -1021.7127168 -1021.7127168 -1021.7127168 -1021.7127168 -1021.7127168 -1021.7127168 -1021.7127168 -1021.7127168 -1021.7127168 -1021.7127168 -1021.7127168 -1021.7127168 -1021.7127168 -1021.7127168
C          0.97580        0.09424        0.04152
C          0.25065       -1.09877        0.67514
O         -1.02114       -1.02050        0.64249
O          0.94552       -2.00235        1.22131
C          2.50977        0.04582       -0.08601
C          2.97361       -0.92970       -1.15881
C          4.39253       -1.55068       -1.07580
O          5.16216       -1.16698       -0.12733
O          4.72175       -2.43744       -1.94374
O          2.27759       -1.29701       -2.11069
C          3.01828        1.46345       -0.37564
O          3.19125        1.80694       -1.58359
O          3.14898        2.22112        0.64450
H          0.69422        0.96248        0.65239
H          0.52994        0.26251       -0.94680
H          2.93246       -0.28453        0.87181
16 16 16 16 16 16 16 16 16 16 16 16 16 16 16 16 16 16 16 16 16 16 16 16 16 16 16 16 16 16 16 16 16 16 16 16 16 16 16 16 16 16 16
C(C([O-])=O)C(C(C(=O)[O-])=O)C([O-])=O
InChI=1S/C6H6O7/c7-3(8)1-2(5(10)11)4(9)6(12)13/h2H,1H2,(H,7,8)(H,10,11)(H,12,13)/p-3
