11
metacyc OXALACETIC_ACID  -712.56038768 -712.56038768 -712.56038768 -712.56038768 -712.56038768 -712.56038768 -712.56038768 -712.56038768 -712.56038768 -712.56038768 -712.56038768 -712.56038768 -712.56038768 -712.56038768 -712.56038768
C          0.97392       -0.22854       -0.06987
C          0.19574       -0.99703       -1.11248
O          0.60053       -2.15402       -1.41355
O         -0.86777       -0.42202       -1.50567
C          2.46030       -0.26548       -0.29727
O          3.00539        0.12786       -1.33154
C          3.39244       -0.63546        0.88104
O          4.65659       -0.58614        0.69092
O          2.83734       -0.90173        2.00026
H          0.71157       -0.64874        0.90500
H          0.67574        0.82501       -0.05855
11 11 11 11 11 11 11 11 11 11 11 11 11 11 11 11 11 11 11 11 11 11 11 11 11 11 11 11
C(C([O-])=O)C(=O)C([O-])=O
InChI=1S/C4H4O5/c5-2(4(8)9)1-3(6)7/h1H2,(H,6,7)(H,8,9)/p-2
