12
metacyc P-BENZOQUINONE  -10.4412540064 -10.4412540064 -10.4412540064 -10.4412540064 -10.4412540064 -10.4412540064 -10.4412540064 -10.4412540064 -10.4412540064 -10.4412540064 -10.4412540064 -10.4412540064 -10.4412540064 -10.4412540064 -10.4412540064
C         -0.44690        1.36564       -0.01958
C          0.86888        1.13240       -0.00167
C          1.40349       -0.24391        0.02294
O          2.60722       -0.45727        0.06105
C          0.42814       -1.35193       -0.00155
C         -0.88765       -1.11850       -0.02011
C         -1.42261        0.25742       -0.01638
O         -2.62711        0.47114       -0.01192
H         -0.85583        2.36862       -0.03636
H          1.59767        1.93352       -0.00203
H          0.83697       -2.35519       -0.00172
H         -1.61651       -1.91990       -0.03616
12 12 12 12 12 12 12 12 12 12 12 12 12 12 12 12 12 12 12 12 12 12 12 12 12 12 12 12 12 12 12
C1(=CC(=O)C=CC(=O)1)
InChI=1S/C6H4O2/c7-5-1-2-6(8)4-3-5/h1-4H
