20
metacyc P-HYDROXY-PHENYLPYRUVATE  -182.900321584 -182.900321584 -182.900321584 -182.900321584 -182.900321584 -182.900321584 -182.900321584 -182.900321584 -182.900321584 -182.900321584 -182.900321584 -182.900321584 -182.900321584 -182.900321584 -182.900321584
C         -0.76854        0.98549        0.37651
C          0.57654        1.16968        0.03061
C          1.13783        2.55641       -0.17923
C          1.68696        3.21444        1.05502
C          3.19988        3.18023        1.29018
O          3.67813        3.89072        2.22927
O          3.86216        2.44414        0.48664
O          0.97737        3.80284        1.87499
C          1.38760        0.04291       -0.16985
C          0.84306       -1.24291       -0.11734
C         -0.51260       -1.39965        0.15433
C         -1.31516       -0.29939        0.43052
O         -1.09954       -2.63243        0.14154
H         -1.40147        1.84607        0.58445
H          0.34584        3.20797       -0.57096
H          1.89024        2.53993       -0.97512
H          2.44788        0.17218       -0.38813
H          1.48954       -2.09438       -0.30167
H         -2.36527       -0.43509        0.66791
H         -0.44128       -3.26571       -0.18727
20 20 20 20 20 20 20 20 20 20 20 20 20 20 20 20 20 20 20 20 20 20 20 20 20 20 20 20 20 20 20 20 20 20 20 20 20 20 20 20 20 20 20 20 20 20 20 20 20 20 20 20 20 20 20
C1(C(CC(C([O-])=O)=O)=CC=C(C=1)O)
InChI=1S/C9H8O4/c10-7-3-1-6(2-4-7)5-8(11)9(12)13/h1-4,10H,5H2,(H,12,13)/p-1
