14
metacyc P-NITROPHENOL  -100.447706352 -100.447706352 -100.447706352 -100.447706352 -100.447706352 -100.447706352 -100.447706352 -100.447706352 -100.447706352 -100.447706352 -100.447706352 -100.447706352 -100.447706352 -100.447706352 -100.447706352
C         -0.77065        1.18638       -0.04502
C          0.62736        1.23692       -0.00247
C          1.43902        0.08624        0.02003
O          2.70960        0.14961        0.05796
C          0.74596       -1.13956       -0.00231
C         -0.65014       -1.22848       -0.04484
C         -1.40206       -0.05557       -0.06655
N         -2.86327       -0.12847       -0.11317
O         -3.50235        0.93616       -0.13572
O         -3.39341       -1.25149       -0.12817
H         -1.32800        2.11709       -0.06044
H          1.11789        2.21045        0.01385
H          1.33099       -2.05945        0.01413
H         -1.11209       -2.21004       -0.06016
14 14 14 14 14 14 14 14 14 14 14 14 14 14 14 14 14 14 14 14 14 14 14 14 14 14 14 14 14 14 14 14 14 14 14 14 14
C1(C=C([O-])C=CC=1[N+](=O)[O-])
InChI=1S/C6H5NO3/c8-6-3-1-5(2-4-6)7(9)10/h1-4,8H/p-1
