20
metacyc P-NITROPHENYL-ACETATE  -163.31055744 -163.31055744 -163.31055744 -163.31055744 -163.31055744 -163.31055744 -163.31055744 -163.31055744 -163.31055744 -163.31055744 -163.31055744 -163.31055744 -163.31055744 -163.31055744 -163.31055744
C          1.00274        0.22350        0.12100
C          2.46137        0.06641       -0.18586
O          2.88928       -0.38947       -1.23817
O          3.21113        0.46031        0.92405
C          4.61614        0.34957        0.90005
C          5.37784        0.62213       -0.23684
C          6.76509        0.46329       -0.19639
C          7.38206        0.06254        0.99624
C          6.62151       -0.15476        2.15419
C          5.23228       -0.00640        2.10306
N          8.83605       -0.14070        1.02545
O          9.46372        0.02580       -0.02998
O          9.34953       -0.47167        2.10378
H          0.43883        0.22288       -0.81671
H          0.81867        1.17671        0.62278
H          0.66916       -0.60966        0.74378
H          4.91241        0.93935       -1.16496
H          7.34151        0.64588       -1.10086
H          7.09177       -0.44514        3.09246
H          4.63550       -0.18072        2.99466
20 20 20 20 20 20 20 20 20 20 20 20 20 20 20 20 20 20 20 20 20 20 20 20 20 20 20 20 20 20 20 20 20 20 20 20 20 20 20 20 20 20 20 20 20 20 20 20 20 20 20 20 20 20 20
CC(=O)OC1(=CC=C(C=C1)[N+]([O-])=O)
InChI=1S/C8H7NO4/c1-6(10)13-8-4-2-7(3-5-8)9(11)12/h2-5H,1H3
