19
metacyc PANTOYL-LACTONE  -7.9445653928 -7.9445653928 -7.9445653928 -7.9445653928 -7.9445653928 -7.9445653928 -7.9445653928 -7.9445653928 -7.9445653928 -7.9445653928 -7.9445653928 -7.9445653928 -7.9445653928 -7.9445653928 -7.9445653928
C          0.90676        0.02373        0.01980
C          2.43741        0.04924        0.04357
C          2.96363        1.12179        0.98907
O          4.24003        0.66557        1.44733
C          4.32794       -0.68344        1.25813
C          3.02018       -1.20832        0.68410
O          3.11223       -2.28733       -0.22595
O          5.32232       -1.35331        1.48704
C          2.96079        0.26835       -1.38681
H          0.49428       -0.10559        1.02518
H          0.53415       -0.79988       -0.60020
H          0.50507        0.96116       -0.38416
H          2.32514        1.26935        1.86667
H          3.09166        2.09033        0.49254
H          2.41274       -1.53947        1.53368
H          4.05368       -2.38133       -0.47002
H          2.61467        1.22876       -1.78578
H          2.60516       -0.51511       -2.06608
H          4.05580        0.26994       -1.42367
19 19 19 19 19 19 19 19 19 19 19 19 19 19 19 19 19 19 19 19 19 19 19 19 19 19 19 19 19 19 19 19 19 19 19 19 19 19 19 19 19 19 19 19 19 19 19 19 19 19 19 19
CC1(COC(C1O)=O)C
InChI=1S/C6H10O3/c1-6(2)3-9-5(8)4(6)7/h4,7H,3H2,1-2H3/t4-/m0/s1
