31
metacyc PANTOTHENATE  -102.567069712 -102.567069712 -102.567069712 -102.567069712 -102.567069712 -102.567069712 -102.567069712 -102.567069712 -102.567069712 -102.567069712 -102.567069712 -102.567069712 -102.567069712 -102.567069712 -102.567069712
C          0.98038        0.18893        0.10932
C          2.52040        0.06918        0.02190
C          2.83938       -1.34341       -0.51456
C          3.05628        1.13956       -0.95533
O          2.46663        1.01720       -2.24719
C          3.11663        0.28139        1.44479
O          2.60148       -0.71083        2.34455
C          4.65638        0.21681        1.48696
O          5.22665       -0.84818        1.71680
N          5.29599        1.40906        1.23139
C          6.75051        1.53032        1.27619
C          7.21059        2.68700        0.41288
C          8.73183        2.79188        0.40884
O          9.31617        2.43861        1.46906
O          9.21865        3.25379       -0.66109
H          0.50722        0.05276       -0.86928
H          0.68533        1.17417        0.48786
H          0.55415       -0.56634        0.78007
H          2.37560       -1.51552       -1.49235
H          2.46349       -2.12393        0.15614
H          3.91729       -1.49248       -0.63318
H          4.14053        1.07567       -1.08689
H          2.82116        2.14464       -0.58551
H          2.97428        0.33744       -2.72536
H          2.80101        1.25293        1.84385
H          3.24084       -1.45228        2.30309
H          4.78131        2.27043        1.35609
H          7.20027        0.58767        0.94641
H          7.01844        1.68076        2.32782
H          6.80146        3.63480        0.78311
H          6.84782        2.55745       -0.61428
31 31 31 31 31 31 31 31 31 31 31 31 31 31 31 31 31 31 31 31 31 31 31 31 31 31 31 31 31 31 31 31 31 31 31 31 31 31 31 31 31 31 31 31 31 31 31 31 31 31 31 31 31 31 31 31 31 31 31 31 31 31 31 31 31 31 31 31 31 31 31 31 31 31 31 31 31 31 31 31 31 31 31 31 31 31 31 31
CC(C)(CO)C(O)C(=O)NCCC(=O)[O-]
InChI=1S/C9H17NO5/c1-9(2,5-11)7(14)8(15)10-4-3-6(12)13/h7,11,14H,3-5H2,1-2H3,(H,10,15)(H,12,13)/p-1/t7-/m0/s1
