25
metacyc PENTAHYDROXYCYCLOHEXANONE  -315.87760704 -315.87760704 -315.87760704 -315.87760704 -315.87760704 -315.87760704 -315.87760704 -315.87760704 -315.87760704 -315.87760704 -315.87760704 -315.87760704 -315.87760704 -315.87760704 -315.87760704
C          0.60032        0.26357       -0.19321
O          1.98953       -0.03275       -0.25738
C          2.84203        1.03507        0.20223
C          4.27210        0.46566        0.23631
O          4.33482       -0.66848        1.09418
C          4.70410        0.14828       -1.20272
O          5.15007       -0.94561       -1.54748
C          4.61337        1.31071       -2.18216
O          5.55668        2.31908       -1.79174
C          3.19717        1.89619       -2.14911
O          3.13311        3.05342       -2.99163
C          2.78099        2.27708       -0.71276
O          3.60188        3.32829       -0.18286
H          0.04946       -0.66371       -0.37209
H          0.32693        0.97178       -0.97970
H          0.32390        0.65520        0.78937
H          2.55413        1.29495        1.22907
H          4.97713        1.20202        0.63721
H          3.75337       -1.34259        0.69007
H          4.86392        0.98322       -3.19649
H          6.44150        1.94367       -1.97813
H          2.48613        1.16648       -2.55359
H          3.77809        3.69578       -2.63806
H          1.76551        2.68372       -0.73833
H          4.50076        3.25889       -0.56696
25 25 25 25 25 25 25 25 25 25 25 25 25 25 25 25 25 25 25 25 25 25 25 25 25 25 25 25 25 25 25 25 25 25 25 25 25 25 25 25 25 25 25 25 25 25 25 25 25 25 25 25 25 25 25 25 25 25 25 25 25 25 25 25 25 25 25 25 25 25
COC1(C(O)C(=O)C(O)C(O)C(O)1)
InChI=1S/C7H12O6/c1-13-7-5(11)3(9)2(8)4(10)6(7)12/h2-3,5-9,11-12H,1H3/t2-,3+,5-,6+,7+/m1/s1
