16
metacyc PHENYLGLYOXYLATE  -110.442792824 -110.442792824 -110.442792824 -110.442792824 -110.442792824 -110.442792824 -110.442792824 -110.442792824 -110.442792824 -110.442792824 -110.442792824 -110.442792824 -110.442792824 -110.442792824 -110.442792824
C          0.76704       -0.57973        0.27116
O          0.93782       -1.64313        0.95115
C          0.24577        0.63393        1.03863
C          0.95138        1.22689        2.20133
C          0.72810        2.57931        2.49390
C          1.39737        3.19148        3.55516
C          2.28078        2.45218        4.33966
C          2.49472        1.10101        4.06363
C          1.83671        0.48971        2.99236
O         -0.79582        1.14294        0.61749
O          1.04348       -0.40036       -0.95662
H          0.04341        3.15745        1.87721
H          1.23177        4.24553        3.76097
H          2.80249        2.92600        5.16638
H          3.17576        0.51762        4.67688
H          2.01394       -0.56512        2.79581
16 16 16 16 16 16 16 16 16 16 16 16 16 16 16 16 16 16 16 16 16 16 16 16 16 16 16 16 16 16 16 16 16 16 16 16 16 16 16 16 16 16 16
C(=O)(C(C1(C=CC=CC=1))=O)[O-]
InChI=1S/C8H6O3/c9-7(8(10)11)6-4-2-1-3-5-6/h1-5H,(H,10,11)/p-1
