19
metacyc PHENYL-PYRUVATE  -17.7159584888 -17.7159584888 -17.7159584888 -17.7159584888 -17.7159584888 -17.7159584888 -17.7159584888 -17.7159584888 -17.7159584888 -17.7159584888 -17.7159584888 -17.7159584888 -17.7159584888 -17.7159584888 -17.7159584888
C          0.96469       -1.33374       -1.29561
O          0.31161       -1.43845       -2.38071
O          0.48859       -1.39940       -0.11565
C          2.48036       -1.10442       -1.37196
O          3.00212       -1.02976       -2.48468
C          3.20310       -0.98152       -0.05187
C          4.70259       -0.80770       -0.15552
C          5.27253        0.47223       -0.18964
C          6.65814        0.62856       -0.26370
C          7.48622       -0.49174       -0.31270
C          6.92885       -1.76915       -0.29627
C          5.54370       -1.92685       -0.22224
H          2.99677       -1.87943        0.54336
H          2.78191       -0.12850        0.49387
H          4.63440        1.35259       -0.16346
H          7.08773        1.62570       -0.28987
H          8.56343       -0.36956       -0.37479
H          7.56896       -2.64493       -0.34817
H          5.11699       -2.92734       -0.22234
19 19 19 19 19 19 19 19 19 19 19 19 19 19 19 19 19 19 19 19 19 19 19 19 19 19 19 19 19 19 19 19 19 19 19 19 19 19 19 19 19 19 19 19 19 19 19 19 19 19 19 19
C([O-])(=O)C(=O)CC1(=CC=CC=C1)
InChI=1S/C9H8O3/c10-8(9(11)12)6-7-4-2-1-3-5-7/h1-5H,6H2,(H,11,12)/p-1
