16
metacyc PHTHALATE  -401.01029184 -401.01029184 -401.01029184 -401.01029184 -401.01029184 -401.01029184 -401.01029184 -401.01029184 -401.01029184 -401.01029184 -401.01029184 -401.01029184 -401.01029184 -401.01029184 -401.01029184
C          0.96374       -0.15810       -0.06860
C          0.30947        0.86318       -0.97973
C         -0.44612        0.36381       -2.06207
C         -1.01191        1.20446       -3.02420
C         -0.82675        2.57442       -2.92317
C         -0.10618        3.09548       -1.84910
C          0.45718        2.26444       -0.85335
C          1.12589        2.95949        0.32091
O          0.79606        2.60902        1.49841
O          1.82715        3.99483        0.03742
O          0.24719       -1.17400        0.24255
O          2.21217       -0.05709        0.14994
H         -0.57393       -0.71523       -2.14705
H         -1.57854        0.78063       -3.84472
H         -1.24502        3.24609       -3.66541
H          0.02400        4.17274       -1.75580
16 16 16 16 16 16 16 16 16 16 16 16 16 16 16 16 16 16 16 16 16 16 16 16 16 16 16 16 16 16 16 16 16 16 16 16 16 16 16 16 16 16 16
C(C1(C=CC=CC(C([O-])=O)=1))([O-])=O
InChI=1S/C8H6O4/c9-7(10)5-3-1-2-4-6(5)8(11)12/h1-4H,(H,9,10)(H,11,12)/p-2
