23
metacyc PNP-PROPIONATE  -70.583690888 -70.583690888 -70.583690888 -70.583690888 -70.583690888 -70.583690888 -70.583690888 -70.583690888 -70.583690888 -70.583690888 -70.583690888 -70.583690888 -70.583690888 -70.583690888 -70.583690888
C          3.80940        2.14359       -1.98832
C          4.23457        1.03202       -1.04288
C          3.94644       -0.32564       -1.63788
O          3.20079       -0.52822       -2.58780
O          4.69008       -1.28649       -0.95548
C          4.90189       -2.45765       -1.69450
C          5.43767       -2.37759       -2.98250
C          5.64482       -3.53714       -3.72348
C          5.34852       -4.77863       -3.14763
N          5.53638       -5.99613       -3.94669
O          5.89375       -5.86478       -5.12533
O          5.32620       -7.08554       -3.39430
C          4.87141       -4.86301       -1.83076
C          4.64909       -3.69289       -1.09413
H          4.05398        3.12213       -1.56581
H          2.73127        2.10950       -2.17699
H          4.31758        2.05152       -2.95515
H          3.71246        1.11808       -0.08574
H          5.31457        1.11311       -0.87553
H          5.66634       -1.41315       -3.42741
H          6.02263       -3.45085       -4.73990
H          4.66323       -5.82788       -1.36797
H          4.27278       -3.74934       -0.07564
23 23 23 23 23 23 23 23 23 23 23 23 23 23 23 23 23 23 23 23 23 23 23 23 23 23 23 23 23 23 23 23 23 23 23 23 23 23 23 23 23 23 23 23 23 23 23 23 23 23 23 23 23 23 23 23 23 23 23 23 23 23 23 23
CCC(=O)OC1(C=CC([N+]([O-])=O)=CC=1)
InChI=1S/C9H9NO4/c1-2-9(11)14-8-5-3-7(4-6-8)10(12)13/h3-6H,2H2,1H3
