10
metacyc PROPIONATE  -147.513053744 -147.513053744 -147.513053744 -147.513053744 -147.513053744 -147.513053744 -147.513053744 -147.513053744 -147.513053744 -147.513053744 -147.513053744 -147.513053744 -147.513053744 -147.513053744 -147.513053744
C          1.01729       -0.09547        0.00270
C          2.53181       -0.12720       -0.06536
C          3.11800       -0.72340       -1.34807
O          2.29294       -1.12432       -2.21392
O          4.38275       -0.73895       -1.37825
H          0.68788        0.34439        0.94923
H          0.59843       -1.10470       -0.06687
H          0.59850        0.50216       -0.81356
H          2.91549       -0.70739        0.78227
H          2.91561        0.89476        0.03756
10 10 10 10 10 10 10 10 10 10 10 10 10 10 10 10 10 10 10 10 10 10 10 10 10
CCC(=O)[O-]
InChI=1S/C3H6O2/c1-2-3(4)5/h2H2,1H3,(H,4,5)/p-1
