15
metacyc PYRROLINE-HYDROXY-CARBOXYLATE  -158.135694192 -158.135694192 -158.135694192 -158.135694192 -158.135694192 -158.135694192 -158.135694192 -158.135694192 -158.135694192 -158.135694192 -158.135694192 -158.135694192 -158.135694192 -158.135694192 -158.135694192
C          0.97343       -0.56547       -0.04236
N          1.03906        0.72270       -0.17798
C         -0.36192        1.18980        0.12333
C         -0.53137        1.60481        1.62159
O         -0.32528        0.68835        2.47265
O         -0.92221        2.79422        1.80460
C         -1.26053       -0.00453       -0.16875
C         -0.37740       -1.19049        0.16626
O         -0.59226       -2.27080       -0.73165
H          1.86459       -1.20678       -0.09593
H         -0.61029        2.03114       -0.53278
H         -1.54699       -0.00845       -1.22797
H         -2.18816       -0.01023        0.41337
H         -0.47045       -1.55082        1.19317
H         -0.59123       -1.89332       -1.62766
15 15 15 15 15 15 15 15 15 15 15 15 15 15 15 15 15 15 15 15 15 15 15 15 15 15 15 15 15 15 15 15 15 15 15 15 15 15 15 15
C1(=NC(C([O-])=O)CC(O)1)
InChI=1S/C5H7NO3/c7-3-1-4(5(8)9)6-2-3/h2-4,7H,1H2,(H,8,9)/p-1/t3-,4+/m1/s1
