9
metacyc PYRUVATE  -344.75618172 -344.75618172 -344.75618172 -344.75618172 -344.75618172 -344.75618172 -344.75618172 -344.75618172 -344.75618172 -344.75618172 -344.75618172 -344.75618172 -344.75618172 -344.75618172 -344.75618172
C          1.07799       -0.06673        0.03422
C          2.57757       -0.10707        0.02075
O          3.21718       -1.10534       -0.31598
C          3.34041        1.15242        0.44574
O          2.60623        2.13932        0.77748
O          4.61052        1.12033        0.43622
H          0.68391       -1.03343       -0.29196
H          0.72146        0.70550       -0.65196
H          0.72134        0.13198        1.04794
9 9 9 9 9 9 9 9 9 9 9 9 9 9 9 9 9 9 9 9 9 9
CC(=O)C(=O)[O-]
InChI=1S/C3H4O3/c1-2(4)3(5)6/h1H3,(H,5,6)/p-1
