16
metacyc R-2-HYDROXYGLUTARATE  -581.58240152 -581.58240152 -581.58240152 -581.58240152 -581.58240152 -581.58240152 -581.58240152 -581.58240152 -581.58240152 -581.58240152 -581.58240152 -581.58240152 -581.58240152 -581.58240152 -581.58240152
C          0.96813        0.03637        0.11212
C          0.26698       -0.45081       -1.16122
C          1.15064       -0.79923       -2.36430
C          0.33093       -1.27129       -3.56978
C          1.25463       -1.55786       -4.80150
O          1.51943       -2.79510       -4.96083
O          1.55355       -0.57354       -5.53522
O         -0.36594       -2.50089       -3.22865
O          0.18021        0.32769        1.06477
O          2.22790        0.10647        0.09289
H         -0.44246        0.33276       -1.45788
H         -0.32598       -1.32918       -0.87903
H          1.85259       -1.58877       -2.06781
H          1.75369        0.07347       -2.64389
H         -0.42665       -0.53104       -3.84863
H          0.20659       -3.17161       -3.67317
16 16 16 16 16 16 16 16 16 16 16 16 16 16 16 16 16 16 16 16 16 16 16 16 16 16 16 16 16 16 16 16 16 16 16 16 16 16 16 16 16 16 16
C(CCC(C([O-])=O)O)([O-])=O
InChI=1S/C5H8O5/c6-3(5(9)10)1-2-4(7)8/h3,6H,1-2H2,(H,7,8)(H,9,10)/p-2/t3-/m1/s1
