23
metacyc RHAMNOSE  -246.00480704 -246.00480704 -246.00480704 -246.00480704 -246.00480704 -246.00480704 -246.00480704 -246.00480704 -246.00480704 -246.00480704 -246.00480704 -246.00480704 -246.00480704 -246.00480704 -246.00480704
C          0.94867        0.18021        0.05808
C          2.45672       -0.01061       -0.11444
C          2.86046       -1.46811       -0.39263
C          2.55219       -1.85956       -1.84478
C          3.10459       -0.82670       -2.82763
C          2.60540        0.57616       -2.44148
O          2.99907        0.87751       -1.10475
O          3.18871        1.54542       -3.30389
O          4.55059       -0.85941       -2.77600
O          3.11736       -3.15359       -2.09879
O          2.19450       -2.36091        0.50182
H          0.57671       -0.38283        0.91958
H          0.38846       -0.15062       -0.82172
H          0.71232        1.23789        0.20761
H          2.91376        0.28545        0.83897
H          3.93680       -1.58683       -0.21466
H          1.46822       -1.96528       -1.97849
H          2.83452       -1.07689       -3.85594
H          1.52036        0.66139       -2.54883
H          4.07137        1.21420       -3.54345
H          4.82394       -0.27551       -2.03640
H          4.04091       -2.99546       -2.38287
H          2.19160       -3.23616        0.06242
23 23 23 23 23 23 23 23 23 23 23 23 23 23 23 23 23 23 23 23 23 23 23 23 23 23 23 23 23 23 23 23 23 23 23 23 23 23 23 23 23 23 23 23 23 23 23 23 23 23 23 23 23 23 23 23 23 23 23 23 23 23 23 23
CC1(C(C(C(C(O1)O)O)O)O)
InChI=1S/C6H12O5/c1-2-3(7)4(8)5(9)6(10)11-2/h2-10H,1H3/t2-,3-,4+,5+,6+/m0/s1
