11
metacyc SARCOSINE  -30.4685607872 -30.4685607872 -30.4685607872 -30.4685607872 -30.4685607872 -30.4685607872 -30.4685607872 -30.4685607872 -30.4685607872 -30.4685607872 -30.4685607872 -30.4685607872 -30.4685607872 -30.4685607872 -30.4685607872
C          1.01142       -0.03775        0.06965
N          2.46617       -0.10935        0.12446
C          3.08089        0.91683       -0.76717
C          4.63601        1.01836       -0.81634
O          5.21196        0.35448       -1.73892
O          5.17439        1.85961       -0.02597
H          0.55591       -0.78332        0.73071
H          0.62115       -0.23082       -0.93645
H          0.62900        0.93866        0.38926
H          2.72174        1.91841       -0.49295
H          2.75095        0.75962       -1.80405
11 11 11 11 11 11 11 11 11 11 11 11 11 11 11 11 11 11 11 11 11 11 11 11 11 11 11 11
C[N+]CC(=O)[O-]
InChI=1S/C3H7NO2/c1-4-2-3(5)6/h4H,2H2,1H3,(H,5,6)
