21
metacyc SHIKIMATE  -380.16652432 -380.16652432 -380.16652432 -380.16652432 -380.16652432 -380.16652432 -380.16652432 -380.16652432 -380.16652432 -380.16652432 -380.16652432 -380.16652432 -380.16652432 -380.16652432 -380.16652432
C         -0.42264       -1.33894        0.05686
C         -1.38614       -0.40604        0.01713
C         -1.09963        1.06298       -0.02263
C          0.37274        1.49756       -0.08144
C          1.47266        0.41940        0.05430
O          2.27755        0.75157        1.20957
C          1.03307       -1.06948        0.08451
O          1.57473       -1.70790        1.24905
O          0.60554        2.23823       -1.29538
C         -2.88602       -0.82008        0.03223
O         -3.70388        0.14365       -0.02664
O         -3.11024       -2.06134        0.11185
H         -0.72261       -2.39178        0.07258
H         -1.54137        1.50821        0.88008
H         -1.63715        1.50010       -0.87416
H          0.51926        2.23684        0.71182
H          2.16320        0.52307       -0.79384
H          1.89812        0.23359        1.94305
H          1.47000       -1.56946       -0.78486
H          0.83783       -1.81426        1.88177
H          0.23083        1.70649       -2.02129
21 21 21 21 21 21 21 21 21 21 21 21 21 21 21 21 21 21 21 21 21 21 21 21 21 21 21 21 21 21 21 21 21 21 21 21 21 21 21 21 21 21 21 21 21 21 21 21 21 21 21 21 21 21 21 21 21 21
C1(=C(CC(C(O)C(O)1)O)C(=O)[O-])
InChI=1S/C7H10O5/c8-4-1-3(7(11)12)2-5(9)6(4)10/h1,4-6,8-10H,2H2,(H,11,12)/p-1/t4-,5-,6-/m1/s1
