26
metacyc SORBITOL  -341.05587304 -341.05587304 -341.05587304 -341.05587304 -341.05587304 -341.05587304 -341.05587304 -341.05587304 -341.05587304 -341.05587304 -341.05587304 -341.05587304 -341.05587304 -341.05587304 -341.05587304
C          0.97579        0.01714        0.17733
C          0.42575        0.03484       -1.26361
C          0.90993       -1.19215       -2.09342
C          0.40498       -1.19839       -3.56837
C          0.90438       -2.40798       -4.40120
C          0.33192       -2.39221       -5.82850
O          0.82158       -3.51943       -6.55671
O          2.33279       -2.45816       -4.51744
O         -1.02186       -1.16910       -3.62773
O          2.33953       -1.24992       -2.03078
O         -0.99532        0.13006       -1.20111
O          2.39474        0.07588        0.23001
H          0.64067       -0.88145        0.70793
H          0.58171        0.87314        0.73607
H          0.80090        0.94319       -1.75110
H          0.52351       -2.09552       -1.60648
H          0.77510       -0.28379       -4.04923
H          0.59626       -3.34249       -3.91722
H          0.65616       -1.49531       -6.36574
H         -0.76048       -2.43402       -5.83488
H          1.75399       -3.63418       -6.28680
H          2.63600       -1.63040       -4.93217
H         -1.37221       -1.97294       -3.20513
H          2.69722       -0.50074       -2.54510
H         -1.34941       -0.69505       -0.83036
H          2.72628       -0.67332       -0.30825
26 26 26 26 26 26 26 26 26 26 26 26 26 26 26 26 26 26 26 26 26 26 26 26 26 26 26 26 26 26 26 26 26 26 26 26 26 26 26 26 26 26 26 26 26 26 26 26 26 26 26 26 26 26 26 26 26 26 26 26 26 26 26 26 26 26 26 26 26 26 26 26 26
C(C(C(C(C(CO)O)O)O)O)O
InChI=1S/C6H14O6/c7-1-3(9)5(11)6(12)4(10)2-8/h3-12H,1-2H2/t3-,4+,5-,6-/m1/s1
