17
metacyc STIPIT-CPD  -524.605676944 -524.605676944 -524.605676944 -524.605676944 -524.605676944 -524.605676944 -524.605676944 -524.605676944 -524.605676944 -524.605676944 -524.605676944 -524.605676944 -524.605676944 -524.605676944 -524.605676944
C          0.97863        0.15432        0.12434
O          0.13995        0.92766        0.69442
C          0.35748       -0.93417       -0.83066
C         -0.98372       -0.96194       -0.91837
C         -1.80329       -1.91520       -1.62238
C         -1.42731       -2.64891       -2.67069
C         -0.11898       -2.50550       -3.34126
O         -0.13169       -2.33455       -4.56664
C          1.14410       -2.70103       -2.51583
O          1.95474       -3.56695       -2.96235
C          1.26559       -1.91366       -1.42204
O         -3.14267       -1.93750       -1.24718
O          2.23461        0.16013        0.26984
H         -1.52750       -0.20087       -0.36348
H         -2.13558       -3.27613       -3.19597
H          2.20773       -2.00799       -0.87664
H         -3.31234       -1.08769       -0.80797
17 17 17 17 17 17 17 17 17 17 17 17 17 17 17 17 17 17 17 17 17 17 17 17 17 17 17 17 17 17 17 17 17 17 17 17 17 17 17 17 17 17 17 17 17 17
C(=O)(C1(=CC(=CC(=O)C([O-])=C1)O))[O-]
InChI=1S/C8H6O5/c9-5-1-4(8(12)13)2-6(10)7(11)3-5/h1-3,9H,(H,10,11)(H,12,13)/p-2
