12
metacyc SUCC-S-ALD  -247.76168956 -247.76168956 -247.76168956 -247.76168956 -247.76168956 -247.76168956 -247.76168956 -247.76168956 -247.76168956 -247.76168956 -247.76168956 -247.76168956 -247.76168956 -247.76168956 -247.76168956
C          1.05725        0.03453       -0.06408
C          0.58257       -1.16993        0.69792
H          0.95529       -1.25324        1.73366
O         -0.22018       -1.99258        0.26252
C          2.57579        0.07649       -0.05492
C          3.16399        1.29934       -0.75193
O          2.33941        2.13431       -1.21107
O          4.42732        1.32390       -0.76484
H          0.63693        0.92038        0.42489
H          0.66793       -0.01122       -1.08650
H          2.97318       -0.82331       -0.54116
H          2.94462        0.06813        0.97882
12 12 12 12 12 12 12 12 12 12 12 12 12 12 12 12 12 12 12 12 12 12 12 12 12 12 12 12 12 12 12
C([CH]=O)CC(=O)[O-]
InChI=1S/C4H6O3/c5-3-1-2-4(6)7/h3H,1-2H2,(H,6,7)/p-1
