12
metacyc SUCCIMIDE  -44.368801232 -44.368801232 -44.368801232 -44.368801232 -44.368801232 -44.368801232 -44.368801232 -44.368801232 -44.368801232 -44.368801232 -44.368801232 -44.368801232 -44.368801232 -44.368801232 -44.368801232
C         -0.78594       -0.94114        0.00848
O         -1.56914       -1.87366       -0.05570
N         -1.12513        0.37028        0.01658
C         -0.05476        1.20053        0.00669
O         -0.10456        2.41738       -0.05826
C          1.19920        0.38137        0.07736
C          0.70764       -1.05937        0.07511
H         -2.07683        0.69523       -0.04370
H          1.74668        0.61568        0.99452
H          1.82997        0.58806       -0.79207
H          1.00035       -1.58298        0.98972
H          1.07822       -1.60472       -0.79749
12 12 12 12 12 12 12 12 12 12 12 12 12 12 12 12 12 12 12 12 12 12 12 12 12 12 12 12 12 12 12
C1(=O)(NC(=O)CC1)
InChI=1S/C4H5NO2/c6-3-1-2-4(7)5-3/h1-2H2,(H,5,6,7)
