3
metacyc SUPER-OXIDE  -312.17690088 -312.17690088 -312.17690088 -312.17690088 -312.17690088 -312.17690088 -312.17690088 -312.17690088 -312.17690088 -312.17690088 -312.17690088 -312.17690088 -312.17690088 -312.17690088 -312.17690088
O          0.95101        0.02127       -0.10334
O          2.35278        0.04260       -0.08933
H          2.67496        0.80908        0.41414
3 3 3 3
[O-]O
InChI=1S/HO2/c1-2/h1H/p-1
