14
metacyc TARTRATE  -833.46849 -833.46849 -833.46849 -833.46849 -833.46849 -833.46849 -833.46849 -833.46849 -833.46849 -833.46849 -833.46849 -833.46849 -833.46849 -833.46849 -833.46849
C          0.98818        0.14423       -0.09715
C          0.19632       -0.52605        1.06346
C         -0.62827       -1.73337        0.63743
C          0.21350       -2.93969        0.11409
O          0.54115       -3.77386        1.02406
O          0.34627       -3.05468       -1.13639
O         -1.39184       -2.19522        1.80278
O          1.10709       -0.84623        2.15798
O          0.30504        0.75324       -0.97112
O          2.25223        0.13417        0.07133
H         -0.47776        0.23302        1.47947
H         -1.36182       -1.45109       -0.12551
H         -0.74848       -2.84813        2.17094
H          1.97672       -0.82443        1.69137
14 14 14 14 14 14 14 14 14 14 14 14 14 14 14 14 14 14 14 14 14 14 14 14 14 14 14 14 14 14 14 14 14 14 14 14 14
C(C(C(C([O-])=O)O)O)([O-])=O
InChI=1S/C4H6O6/c5-1(3(7)8)2(6)4(9)10/h1-2,5-6H,(H,7,8)(H,9,10)/p-2/t1-,2-/m1/s1
