10
metacyc TARTRONATE-S-ALD  -499.6478408 -499.6478408 -499.6478408 -499.6478408 -499.6478408 -499.6478408 -499.6478408 -499.6478408 -499.6478408 -499.6478408 -499.6478408 -499.6478408 -499.6478408 -499.6478408 -499.6478408
C          0.95294       -0.18621       -0.03964
H          0.61091       -1.09521        0.48639
O          0.12472        0.53537       -0.59711
C          2.45828       -0.00773       -0.09854
O          2.88434        1.25446       -0.64014
C          2.95857       -0.15651        1.35537
O          2.79653       -1.29242        1.88130
O          3.46646        0.90261        1.83629
H          2.87994       -0.80421       -0.71914
H          3.14951        1.74887        0.17281
10 10 10 10 10 10 10 10 10 10 10 10 10 10 10 10 10 10 10 10 10 10 10 10 10
[CH](=O)C(O)C(=O)[O-]
InChI=1S/C3H4O4/c4-1-2(5)3(6)7/h1-2,5H,(H,6,7)/p-1
