16
metacyc TEREPHTHALATE  -401.01029184 -401.01029184 -401.01029184 -401.01029184 -401.01029184 -401.01029184 -401.01029184 -401.01029184 -401.01029184 -401.01029184 -401.01029184 -401.01029184 -401.01029184 -401.01029184 -401.01029184
C          0.93730        0.04812        0.09582
C          0.38417        1.09157       -0.85926
C         -0.41082        0.72425       -1.95698
C         -0.91078        1.68738       -2.84711
C         -0.63415        3.05287       -2.67195
C          0.15297        3.42101       -1.56887
C          0.65313        2.45795       -0.67883
C         -1.16316        4.09382       -3.64309
O         -1.86372        3.68313       -4.62649
O         -0.87354        5.31464       -3.41704
O          0.65477       -1.17359       -0.13512
O          1.65176        0.45740        1.06927
H         -0.63839       -0.32690       -2.11972
H         -1.52069        1.37307       -3.69120
H          0.38069        4.47220       -1.40614
H          1.26365        2.77224        0.16482
16 16 16 16 16 16 16 16 16 16 16 16 16 16 16 16 16 16 16 16 16 16 16 16 16 16 16 16 16 16 16 16 16 16 16 16 16 16 16 16 16 16 16
C(C1(C=CC(=CC=1)C([O-])=O))([O-])=O
InChI=1S/C8H6O4/c9-7(10)5-1-2-6(4-3-5)8(11)12/h1-4H,(H,9,10)(H,11,12)/p-2
