13
metacyc TETRANITROMETHANE  -1068.09156184 -1068.09156184 -1068.09156184 -1068.09156184 -1068.09156184 -1068.09156184 -1068.09156184 -1068.09156184 -1068.09156184 -1068.09156184 -1068.09156184 -1068.09156184 -1068.09156184 -1068.09156184 -1068.09156184
C          1.08703        0.07323        0.00260
N          0.57060        1.29254        0.64488
O         -0.01480        2.14044       -0.04727
O          0.74303        1.42518        1.86943
N          0.63177        0.01599       -1.39293
O          1.27710        0.64415       -2.25027
O         -0.39109       -0.63204       -1.66693
N          0.56440       -1.08892        0.73987
O         -0.59080       -1.02713        1.19621
O          1.27058       -2.10099        0.86450
N          2.55988        0.08540        0.00706
O          3.16019        1.02890        0.54678
O          3.16098       -0.83647       -0.57279
13 13 13 13 13 13 13 13 13 13 13 13 13 13 13 13 13 13 13 13 13 13 13 13 13 13 13 13 13 13 13 13 13 13
C([N+]([O-])=O)([N+]([O-])=O)([N+](=O)[O-])[N+]([O-])=O
InChI=1S/CN4O8/c6-2(7)1(3(8)9,4(10)11)5(12)13
