18
metacyc TETRAHYDROXYPTERIDINE  -353.064806576 -353.064806576 -353.064806576 -353.064806576 -353.064806576 -353.064806576 -353.064806576 -353.064806576 -353.064806576 -353.064806576 -353.064806576 -353.064806576 -353.064806576 -353.064806576 -353.064806576
C         -0.01315       -0.64386        0.00260
N          1.14894       -1.29450        0.00305
C          2.24614       -0.54864        0.00695
O          3.41194       -1.24381        0.00708
N          2.32382        0.77497        0.01066
C          1.13060        1.37889        0.00986
C         -0.11096        0.76443        0.00580
N         -1.30692        1.43243        0.00523
C         -2.38077        0.64175        0.00146
C         -2.30040       -0.73863       -0.00145
O         -3.42497       -1.51449       -0.00469
N         -1.12336       -1.38923       -0.00106
O         -3.57308        1.28990        0.00069
O          1.23421        2.74028        0.01378
H          3.06394       -2.15164        0.00381
H         -4.17160       -0.88763       -0.00383
H         -3.26966        2.21836        0.00277
H          2.20168        2.85435        0.01616
18 18 18 18 18 18 18 18 18 18 18 18 18 18 18 18 18 18 18 18 18 18 18 18 18 18 18 18 18 18 18 18 18 18 18 18 18 18 18 18 18 18 18 18 18 18 18 18 18
C12(N=C(O)N=C(C(N=C(C(O)=N1)O)=2)O)
InChI=1S/C6H4N4O4/c11-3-1-2(9-6(14)10-3)8-5(13)4(12)7-1/h(H,7,12)(H3,8,9,10,11,13,14)
