18
metacyc THREO-DS-ISO-CITRATE  -964.29873912 -964.29873912 -964.29873912 -964.29873912 -964.29873912 -964.29873912 -964.29873912 -964.29873912 -964.29873912 -964.29873912 -964.29873912 -964.29873912 -964.29873912 -964.29873912 -964.29873912
C          0.96095       -0.18979       -0.16209
O          0.42439       -0.49742       -1.26642
C          0.22661        0.79765        0.77503
C          0.77598        2.20917        0.47390
C          0.59684        2.92794       -0.87439
O         -0.58643        3.22636       -1.20964
O          1.67379        3.31620       -1.43198
C         -1.31021        0.66157        0.82029
O         -1.59282       -0.71307        1.26639
C         -2.07076        1.57464        1.87357
O         -1.49936        1.68946        3.01008
O         -3.26239        1.91693        1.58807
O          2.05576       -0.65365        0.31028
H          0.58473        0.54190        1.78498
H          1.85965        2.18152        0.66564
H          0.38357        2.90114        1.23117
H         -1.75485        0.77792       -0.17275
H         -1.34600       -0.66382        2.20882
18 18 18 18 18 18 18 18 18 18 18 18 18 18 18 18 18 18 18 18 18 18 18 18 18 18 18 18 18 18 18 18 18 18 18 18 18 18 18 18 18 18 18 18 18 18 18 18 18
C(=O)(C(CC([O-])=O)C(O)C([O-])=O)[O-]
InChI=1S/C6H8O7/c7-3(8)1-2(5(10)11)4(9)6(12)13/h2,4,9H,1H2,(H,7,8)(H,10,11)(H,12,13)/p-3/t2-,4+/m0/s1
