16
metacyc THREOSE  -255.01915136 -255.01915136 -255.01915136 -255.01915136 -255.01915136 -255.01915136 -255.01915136 -255.01915136 -255.01915136 -255.01915136 -255.01915136 -255.01915136 -255.01915136 -255.01915136 -255.01915136
C          1.07145       -0.06673       -0.06823
H          0.54211        0.60337        0.63497
O          0.45608       -0.75245       -0.88066
C          2.58881       -0.08622        0.03395
O          3.15298       -1.08845       -0.80535
C          3.10871        1.30154       -0.35213
O          2.60122        2.27252        0.57141
C          4.64356        1.33038       -0.38541
O          5.10360        2.64887       -0.67965
H          2.83688       -0.31681        1.07816
H          2.51336       -1.21773       -1.53892
H          2.73320        1.58257       -1.34348
H          3.32357        2.50579        1.18571
H          5.05276        0.64390       -1.13397
H          5.05548        1.06491        0.59319
H          4.64541        2.95017       -1.48463
16 16 16 16 16 16 16 16 16 16 16 16 16 16 16 16 16 16 16 16 16 16 16 16 16 16 16 16 16 16 16 16 16 16 16 16 16 16 16 16 16 16 16
[CH](=O)C(O)C(O)CO
InChI=1S/C4H8O4/c5-1-3(7)4(8)2-6/h1,3-4,6-8H,2H2/t3-,4-/m1/s1
