13
metacyc THREO-3-HYDROXY-L-ASPARTATE  -596.11682256 -596.11682256 -596.11682256 -596.11682256 -596.11682256 -596.11682256 -596.11682256 -596.11682256 -596.11682256 -596.11682256 -596.11682256 -596.11682256 -596.11682256 -596.11682256 -596.11682256
C          0.98455       -0.02862       -0.10401
O          0.36279        0.99068        0.32766
O          0.50874       -1.04758       -0.69261
C          2.54096        0.04831       -0.04756
O          2.98394        1.33719        0.45177
C          3.10676       -1.13686        0.73175
N          4.58273       -1.13726        0.63095
C          2.78380       -1.26247        2.24127
O          2.52569       -0.19856        2.87708
O          2.85570       -2.44452        2.71378
H          2.89079        0.00019       -1.08692
H          2.33127        1.49455        1.17419
H          2.75838       -2.06423        0.25820
13 13 13 13 13 13 13 13 13 13 13 13 13 13 13 13 13 13 13 13 13 13 13 13 13 13 13 13 13 13 13 13 13 13
C(=O)([O-])C(O)C([N+])C(=O)[O-]
InChI=1S/C4H7NO5/c5-1(3(7)8)2(6)4(9)10/h1-2,6H,5H2,(H,7,8)(H,9,10)/p-1/t1-,2-/m0/s1
