15
metacyc THYMINE  -42.188435152 -42.188435152 -42.188435152 -42.188435152 -42.188435152 -42.188435152 -42.188435152 -42.188435152 -42.188435152 -42.188435152 -42.188435152 -42.188435152 -42.188435152 -42.188435152 -42.188435152
C          1.04395        0.06311        0.03889
C          2.53417        0.02219       -0.04677
C          3.29350        1.30174       -0.10307
O          2.73571        2.39317       -0.07990
N          4.65461        1.19155       -0.18584
C          5.35312        0.02042       -0.23242
N          4.59811       -1.11813       -0.17585
C          3.23490       -1.11890       -0.08733
O          6.57553       -0.01458       -0.32094
H          0.64611        1.07831       -0.04850
H          0.70629       -0.34299        0.99800
H          0.59808       -0.52943       -0.76704
H          5.18583        2.04637       -0.22900
H          5.11518       -1.98964       -0.20933
H          2.75796       -2.09394       -0.05219
15 15 15 15 15 15 15 15 15 15 15 15 15 15 15 15 15 15 15 15 15 15 15 15 15 15 15 15 15 15 15 15 15 15 15 15 15 15 15 15
CC1(C(=O)NC(NC=1)=O)
InChI=1S/C5H6N2O2/c1-3-2-6-5(9)7-4(3)8/h2H,1H3,(H2,6,7,8,9)
