12
metacyc URACIL  -121.317247312 -121.317247312 -121.317247312 -121.317247312 -121.317247312 -121.317247312 -121.317247312 -121.317247312 -121.317247312 -121.317247312 -121.317247312 -121.317247312 -121.317247312 -121.317247312 -121.317247312
C         -0.72983        1.14841        0.01182
C          0.60004        1.26321       -0.00602
C          1.41825        0.03340       -0.01668
N          0.72781       -1.14565        0.00634
C         -0.63366       -1.26139        0.01813
O         -1.20192       -2.34800        0.02383
N         -1.32737       -0.08049        0.02148
O          2.64169        0.09156       -0.04618
H         -1.38678        2.01216        0.01829
H          1.11836        2.21214       -0.01555
H          1.26266       -1.99929       -0.00143
H         -2.33776       -0.16461        0.03090
12 12 12 12 12 12 12 12 12 12 12 12 12 12 12 12 12 12 12 12 12 12 12 12 12 12 12 12 12 12 12
C1(=CC(NC(=O)N1)=O)
InChI=1S/C4H4N2O2/c7-3-1-2-5-4(8)6-3/h1-2H,(H2,5,6,7,8)
