8
metacyc UREA  -30.901017772 -30.901017772 -30.901017772 -30.901017772 -30.901017772 -30.901017772 -30.901017772 -30.901017772 -30.901017772 -30.901017772 -30.901017772 -30.901017772 -30.901017772 -30.901017772 -30.901017772
C          1.05655        0.06924       -0.02139
O          0.44638       -0.00727        1.03268
N          0.44571        0.15610       -1.21803
N          2.40101        0.07437       -0.09210
H         -0.56480        0.15670       -1.22633
H          0.94601        0.21926       -2.08824
H          2.91348        0.01132        0.77658
H          2.90647        0.13732       -0.95934
8 8 8 8 8 8 8 8 8 8 8 8 8 8 8 8 8 8 8
C(=O)(N)N
InChI=1S/CH4N2O/c2-1(3)4/h(H4,2,3,4)
