29
metacyc URIDINE  -297.1750852 -297.1750852 -297.1750852 -297.1750852 -297.1750852 -297.1750852 -297.1750852 -297.1750852 -297.1750852 -297.1750852 -297.1750852 -297.1750852 -297.1750852 -297.1750852 -297.1750852
C          1.00268        0.08199        0.01095
O          0.57295        0.11355        1.37033
C          2.51841       -0.06566       -0.07385
O          3.14006        1.06564        0.58033
C          4.45134        0.62006        0.98227
C          4.20786       -0.81710        1.47620
O          5.33955       -1.65550        1.62046
C          3.06008       -1.33493        0.60204
O          3.44411       -2.30948       -0.36617
N          5.38731        0.94361       -0.11402
C          5.55658        2.29302       -0.40157
C          6.30232        2.72435       -1.42148
C          6.99873        1.73241       -2.24906
O          7.59801        2.05996       -3.26526
N          6.89489        0.44123       -1.82953
C          5.99891       -0.01790       -0.90325
O          5.75785       -1.22334       -0.85656
H          0.68244        1.02065       -0.45412
H          0.50026       -0.74772       -0.49500
H          1.01462        0.88014        1.77703
H          2.81186       -0.03398       -1.13053
H          4.77018        1.22986        1.83831
H          3.78920       -0.71534        2.48591
H          5.56155       -1.99736        0.73109
H          2.30700       -1.81601        1.23490
H          4.24844       -1.99640       -0.82755
H          5.01271        3.00110        0.21935
H          6.40607        3.76691       -1.68609
H          7.32364       -0.25315       -2.42125
29 29 29 29 29 29 29 29 29 29 29 29 29 29 29 29 29 29 29 29 29 29 29 29 29 29 29 29 29 29 29 29 29 29 29 29 29 29 29 29 29 29 29 29 29 29 29 29 29 29 29 29 29 29 29 29 29 29 29 29 29 29 29 29 29 29 29 29 29 29 29 29 29 29 29 29 29 29 29 29 29 29
C(O)C1(OC(C(O)C(O)1)N2(C=CC(=O)NC(=O)2))
InChI=1S/C9H12N2O6/c12-3-4-6(14)7(15)8(17-4)11-2-1-5(13)10-9(11)16/h1-2,4,6-8,12,14-15H,3H2,(H,10,13,16)/t4-,6-,7-,8-/m1/s1
