19
metacyc VANILLATE  -191.51933648 -191.51933648 -191.51933648 -191.51933648 -191.51933648 -191.51933648 -191.51933648 -191.51933648 -191.51933648 -191.51933648 -191.51933648 -191.51933648 -191.51933648 -191.51933648 -191.51933648
C          1.08480       -0.00047       -0.51020
O          2.36779       -0.08992        0.09352
C          2.96946        1.09672        0.43092
C          2.40066        2.36310        0.25291
C          3.08992        3.53517        0.62095
C          4.36856        3.41123        1.18499
C          4.94948        2.15657        1.37120
C          4.25089        1.01013        0.99061
O          4.83172       -0.22133        1.16257
C          2.46330        4.90019        0.40769
O          3.14664        5.91144        0.76396
O          1.30422        4.92991       -0.11331
H          0.75187       -1.01790       -0.73716
H          1.12779        0.55048       -1.45583
H          0.35373        0.44056        0.17565
H          1.41053        2.48939       -0.17686
H          4.90751        4.31186        1.47630
H          5.93860        2.09963        1.81100
H          5.73500       -0.07977        1.48168
19 19 19 19 19 19 19 19 19 19 19 19 19 19 19 19 19 19 19 19 19 19 19 19 19 19 19 19 19 19 19 19 19 19 19 19 19 19 19 19 19 19 19 19 19 19 19 19 19 19 19 19
COC1(=CC(=CC=C(O)1)C(=O)[O-])
InChI=1S/C8H8O4/c1-12-7-4-5(8(10)11)2-3-6(7)9/h2-4,9H,1H3,(H,10,11)/p-1
