23
metacyc VANILLYL_MANDELATE  -251.466629928 -251.466629928 -251.466629928 -251.466629928 -251.466629928 -251.466629928 -251.466629928 -251.466629928 -251.466629928 -251.466629928 -251.466629928 -251.466629928 -251.466629928 -251.466629928 -251.466629928
C          1.27133       -0.23297        0.52594
O          2.46315        0.20198       -0.12770
C          2.91770       -0.67166       -1.08804
C          3.58406       -0.09775       -2.17351
O          3.75926        1.25924       -2.23114
C          4.06418       -0.87787       -3.21467
C          3.87883       -2.26040       -3.17047
C          3.22867       -2.87366       -2.08215
C          2.77193       -2.05814       -1.03270
C          3.03953       -4.37642       -2.09053
O          4.35859       -4.98717       -2.11698
C          2.21823       -5.00238       -0.91868
O          1.01312       -4.64365       -0.79816
O          2.88298       -5.84269       -0.23049
H          0.92284        0.58749        1.16040
H          1.45583       -1.09063        1.17967
H          0.48086       -0.45161       -0.20184
H          3.36976        1.58064       -1.39767
H          4.57193       -0.41826       -4.05528
H          4.25373       -2.87953       -3.98192
H          2.30317       -2.52762       -0.17353
H          2.53508       -4.66556       -3.01998
H          4.29503       -5.61298       -1.35281
23 23 23 23 23 23 23 23 23 23 23 23 23 23 23 23 23 23 23 23 23 23 23 23 23 23 23 23 23 23 23 23 23 23 23 23 23 23 23 23 23 23 23 23 23 23 23 23 23 23 23 23 23 23 23 23 23 23 23 23 23 23 23 23
COC1(C(O)=CC=C(C=1)C(O)C(=O)[O-])
InChI=1S/C9H10O5/c1-14-7-4-5(2-3-6(7)10)8(11)9(12)13/h2-4,8,10-11H,1H3,(H,12,13)/p-1/t8-/m1/s1
