11
metacyc VINYL-ACETATE  -45.046862364 -45.046862364 -45.046862364 -45.046862364 -45.046862364 -45.046862364 -45.046862364 -45.046862364 -45.046862364 -45.046862364 -45.046862364 -45.046862364 -45.046862364 -45.046862364 -45.046862364
C          1.09597        0.44934        0.51159
C          2.28798        0.04477        0.05488
C          3.12317        0.81938       -0.93036
C          4.64117        0.70837       -0.70919
O          5.07511       -0.41045       -0.30171
O          5.29375        1.75236       -1.00570
H          0.54694       -0.15409        1.22613
H          0.65437        1.38208        0.17921
H          2.70938       -0.89598        0.40590
H          2.83760        1.87896       -0.91644
H          2.92227        0.43599       -1.93817
11 11 11 11 11 11 11 11 11 11 11 11 11 11 11 11 11 11 11 11 11 11 11 11 11 11 11 11
C=CCC(=O)[O-]
InChI=1S/C4H6O2/c1-2-3-4(5)6/h2H,1,3H2,(H,5,6)/p-1
