3
metacyc WATER  -151.229659104 -151.229659104 -151.229659104 -151.229659104 -151.229659104 -151.229659104 -151.229659104 -151.229659104 -151.229659104 -151.229659104 -151.229659104 -151.229659104 -151.229659104 -151.229659104 -151.229659104
O          1.04682       -0.00770       -0.08889
H          0.76797       -0.72981        0.49400
H          2.01470       -0.04383       -0.05972
3 3 3 3
[OH2]
InChI=1S/H2O/h1H2
