15
metacyc XANTHINE  -107.003774944 -107.003774944 -107.003774944 -107.003774944 -107.003774944 -107.003774944 -107.003774944 -107.003774944 -107.003774944 -107.003774944 -107.003774944 -107.003774944 -107.003774944 -107.003774944 -107.003774944
C         -0.26228        0.69271       -0.00037
N          0.90857        1.40294       -0.00057
C          2.15213        0.70499       -0.00071
O          3.16981        1.37113       -0.00059
N          2.08173       -0.65806       -0.00093
C          0.94253       -1.43507       -0.00061
C         -0.28729       -0.67581       -0.00034
N         -1.58316       -1.12613        0.00006
C         -2.32633       -0.03842        0.00025
N         -1.56146        1.10140       -0.00009
O          1.01267       -2.65830       -0.00051
H          0.94028        2.41470       -0.00048
H          2.95638       -1.16037       -0.00100
H         -3.40993       -0.01231        0.00065
H         -1.91550        2.04832       -0.00004
15 15 15 15 15 15 15 15 15 15 15 15 15 15 15 15 15 15 15 15 15 15 15 15 15 15 15 15 15 15 15 15 15 15 15 15 15 15 15 15
C12(NC(=O)NC(C=1N=CN2)=O)
InChI=1S/C5H4N4O2/c10-4-2-3(7-1-6-2)8-5(11)9-4/h1H,(H3,6,7,8,9,10,11)
